data_ABEFIX
_symmetry_space_group_name_H-M    'P1'
_symmetry_Int_Tables_number       1
loop_
_symmetry_equiv_pos_site_id
_symmetry_equiv_pos_as_xyz
1 x,y,z
_cell_length_a                   30.9836
_cell_length_b                   4.92001
_cell_length_c                   9.9812
_cell_angle_alpha                90.0
_cell_angle_beta                 90.0
_cell_angle_gamma                90.0
loop_
_atom_site_label
_atom_site_type_symbol
_atom_site_fract_x
_atom_site_fract_y
_atom_site_fract_z
     1  Cl         0.37226010       0.81639900       0.50000500
     2  Cl         0.62773990       0.18360100       0.00000500
     3  Cl         0.87226010       0.18360100       0.50000500
     4  Cl         0.12773990       0.81639900       0.00000500
     5  O          0.65944400       0.84387000       0.63562000
     6  O          0.34055600       0.15613000       0.13562000
     7  O          0.15944400       0.15613000       0.63562000
     8  O          0.84055600       0.84387000       0.13562000
     9  O          0.59993400       0.08942000       0.59480100
    10  O          0.40006600       0.91058000       0.09480100
    11  O          0.09993400       0.91058000       0.59480100
    12  O          0.90006600       0.08942000       0.09480100
    13  O          0.45677500       0.53826000       0.54632000
    14  O          0.54322500       0.46174000       0.04632000
    15  O          0.95677500       0.46174000       0.54632000
    16  O          0.04322500       0.53826000       0.04632000
    17  N          0.54828400       0.75207000       0.73570100
    18  N          0.45171600       0.24793000       0.23570100
    19  N          0.04828400       0.24793000       0.73570100
    20  N          0.95171600       0.75207000       0.23570100
    21  C          0.62013500       0.89717000       0.64802000
    22  C          0.37986500       0.10283000       0.14802000
    23  C          0.12013500       0.10283000       0.64802000
    24  C          0.87986500       0.89717000       0.14802000
    25  C          0.59529500       0.70077000       0.73722000
    26  C          0.40470500       0.29923000       0.23722000
    27  C          0.09529500       0.29923000       0.73722000
    28  C          0.90470500       0.70077000       0.23722000
    29  C          0.53216600       0.94206000       0.81762000
    30  C          0.46783400       0.05794000       0.31762000
    31  C          0.03216600       0.05794000       0.81762000
    32  C          0.96783400       0.94206000       0.31762000
    33  C          0.48880600       0.00684000       0.81152000
    34  C          0.51119400      -0.00684000       0.31152000
    35  C          0.98880600      -0.00684000       0.81152000
    36  C          0.01119400       0.00684000       0.31152000
    37  C          0.46225500       0.87316000       0.72172000
    38  C          0.53774500       0.12684000       0.22172000
    39  C          0.96225500       0.12684000       0.72172000
    40  C          0.03774500       0.87316000       0.22172000
    41  C          0.47959500       0.67797000       0.63702000
    42  C          0.52040500       0.32203000       0.13702000
    43  C          0.97959500       0.32203000       0.63702000
    44  C          0.02040500       0.67797000       0.13702000
    45  C          0.52351500       0.61977000       0.64682000
    46  C          0.47648500       0.38023000       0.14682000
    47  C          0.02351500       0.38023000       0.64682000
    48  C          0.97648500       0.61977000       0.14682000
    49  H          0.43175000       0.60650000       0.54030000
    50  H          0.56825000       0.39350000       0.04030000
    51  H          0.93175000       0.39350000       0.54030000
    52  H          0.06825000       0.60650000       0.04030000
    53  H          0.60070000       0.51630000       0.70720000
    54  H          0.39930000       0.48370000       0.20720000
    55  H          0.10070000       0.48370000       0.70720000
    56  H          0.89930000       0.51630000       0.20720000
    57  H          0.60580000       0.71670000       0.82830000
    58  H          0.39420000       0.28330000       0.32830000
    59  H          0.10580000       0.28330000       0.82830000
    60  H          0.89420000       0.71670000       0.32830000
    61  H          0.55010000       0.03020000       0.87840000
    62  H          0.44990000       0.96980000       0.37840000
    63  H          0.05010000       0.96980000       0.87840000
    64  H          0.94990000       0.03020000       0.37840000
    65  H          0.47750000       0.13990000       0.86760000
    66  H          0.52250000       0.86010000       0.36760000
    67  H          0.97750000       0.86010000       0.86760000
    68  H          0.02250000       0.13990000       0.36760000
    69  H          0.43300000       0.91390000       0.71810000
    70  H          0.56700000       0.08610000       0.21810000
    71  H          0.93300000       0.08610000       0.71810000
    72  H          0.06700000       0.91390000       0.21810000
    73  H          0.53570000       0.48850000       0.59150000
    74  H          0.46430000       0.51150000       0.09150000
    75  H          0.03570000       0.51150000       0.59150000
    76  H          0.96430000       0.48850000       0.09150000
    77  O          0.59179400       0.59763000       0.38212000
    78  O          0.40820600       0.40237000       0.88212000
    79  O          0.09179400       0.40237000       0.38212000
    80  O          0.90820600       0.59763000       0.88212000
    81  O          0.64613400       0.30932000       0.41772000
    82  O          0.35386600       0.69068000       0.91772000
    83  O          0.14613400       0.69068000       0.41772000
    84  O          0.85386600       0.30932000       0.91772000
    85  O          0.76769400       0.08903000       0.11240100
    86  O          0.23230600       0.91097000       0.61240100
    87  O          0.26769400       0.91097000       0.11240100
    88  O          0.73230600       0.08903000       0.61240100
    89  N          0.70282400       0.58933000       0.27250100
    90  N          0.29717600       0.41067000       0.77250100
    91  N          0.20282400       0.41067000       0.27250100
    92  N          0.79717600       0.58933000       0.77250100
    93  C          0.62813500       0.52053000       0.36362000
    94  C          0.37186500       0.47947000       0.86362000
    95  C          0.12813500       0.47947000       0.36362000
    96  C          0.87186500       0.52053000       0.86362000
    97  C          0.65731600       0.67743000       0.26882000
    98  C          0.34268400       0.32257000       0.76882000
    99  C          0.15731600       0.32257000       0.26882000
   100  C          0.84268400       0.67743000       0.76882000
   101  C          0.73044700       0.70594000       0.35932000
   102  C          0.26955300       0.29406000       0.85932000
   103  C          0.23044700       0.29406000       0.35932000
   104  C          0.76955300       0.70594000       0.85932000
   105  C          0.77237700       0.61714000       0.36662000
   106  C          0.22762300       0.38286000       0.86662000
   107  C          0.27237700       0.38286000       0.36662000
   108  C          0.72762300       0.61714000       0.86662000
   109  C          0.78655500       0.40834000       0.28672000
   110  C          0.21344500       0.59166000       0.78672000
   111  C          0.28655500       0.59166000       0.28672000
   112  C          0.71344500       0.40834000       0.78672000
   113  C          0.75780500       0.29103000       0.19652000
   114  C          0.24219500       0.70897000       0.69652000
   115  C          0.25780500       0.70897000       0.19652000
   116  C          0.74219500       0.29103000       0.69652000
   117  C          0.71562500       0.38563000       0.19222000
   118  C          0.28437500       0.61437000       0.69222000
   119  C          0.21562500       0.61437000       0.19222000
   120  C          0.78437500       0.38563000       0.69222000
   121  H          0.62698000       0.25070000       0.47230000
   122  H          0.37302000       0.74930000       0.97230000
   123  H          0.12698000       0.74930000       0.47230000
   124  H          0.87302000       0.25070000       0.97230000
   125  H          0.79325000       0.02550000       0.12730000
   126  H          0.20675000      -0.02550000       0.62730000
   127  H          0.29325000      -0.02550000       0.12730000
   128  H          0.70675000       0.02550000       0.62730000
   129  H          0.64650000       0.65670000       0.17820000
   130  H          0.35350000       0.34330000       0.67820000
   131  H          0.14650000       0.34330000       0.17820000
   132  H          0.85350000       0.65670000       0.67820000
   133  H          0.65590000       0.86890000       0.29140000
   134  H          0.34410000       0.13110000       0.79140000
   135  H          0.15590000       0.13110000       0.29140000
   136  H          0.84410000       0.86890000       0.79140000
   137  H          0.72110000       0.84660000       0.41430000
   138  H          0.27890000       0.15340000       0.91430000
   139  H          0.22110000       0.15340000       0.41430000
   140  H          0.77890000       0.84660000       0.91430000
   141  H          0.79140000       0.69920000       0.42630000
   142  H          0.20860000       0.30080000       0.92630000
   143  H          0.29140000       0.30080000       0.42630000
   144  H          0.70860000       0.69920000       0.92630000
   145  H          0.81480000       0.34630000       0.29270000
   146  H          0.18520000       0.65370000       0.79270000
   147  H          0.31480000       0.65370000       0.29270000
   148  H          0.68520000       0.34630000       0.79270000
   149  H          0.69600000       0.30710000       0.13320000
   150  H          0.30400000       0.69290000       0.63320000
   151  H          0.19600000       0.69290000       0.13320000
   152  H          0.80400000       0.30710000       0.63320000
