data_ABOVEW
_symmetry_space_group_name_H-M    'P1'
_symmetry_Int_Tables_number       1
loop_
_symmetry_equiv_pos_site_id
_symmetry_equiv_pos_as_xyz
1 x,y,z
_cell_length_a                   15.341915
_cell_length_b                   4.92156
_cell_length_c                   29.4103
_cell_angle_alpha                90.0
_cell_angle_beta                 97.7467
_cell_angle_gamma                90.0
loop_
_atom_site_label
_atom_site_type_symbol
_atom_site_fract_x
_atom_site_fract_y
_atom_site_fract_z
     1  I          0.51636200       0.34449800       0.73865200
     2  I          0.98363800       0.84449800       0.76134800
     3  I          0.48363800       0.65550200       0.26134800
     4  I          0.01636200       0.15550200       0.23865200
     5  I          0.21551200       0.60509700       0.89198200
     6  I          0.28448800       0.10509700       0.60801800
     7  I          0.78448800       0.39490300       0.10801800
     8  I          0.71551200       0.89490300       0.39198200
     9  F          0.51282000       0.79006000       0.81889120
    10  F          0.98718000       0.29006000       0.68110880
    11  F          0.48718000       0.20994000       0.18110880
    12  F          0.01282000       0.70994000       0.31889120
    13  F          0.22092000       0.16286000       0.81174120
    14  F          0.27908000       0.66286000       0.68825880
    15  F          0.77908000       0.83714000       0.18825880
    16  F          0.72092000       0.33714000       0.31174120
    17  F          0.33512000       0.07096000       0.75285110
    18  F          0.16488000       0.57096000       0.74714890
    19  F          0.66488000       0.92904000       0.24714890
    20  F          0.83512000       0.42904000       0.25285110
    21  F          0.39722000       0.88746000       0.87680110
    22  F          0.10278000       0.38746000       0.62319890
    23  F          0.60278000       0.11254000       0.12319890
    24  F          0.89722000       0.61254000       0.37680110
    25  C          0.44053000       0.63331000       0.81594190
    26  C          0.05947000       0.13331000       0.68405810
    27  C          0.55947000       0.36669000       0.18405810
    28  C          0.94053000       0.86669000       0.31594190
    29  C          0.38083000       0.68231000       0.84646190
    30  C          0.11917000       0.18231000       0.65353810
    31  C          0.61917000       0.31769000       0.15353810
    32  C          0.88083000       0.81769000       0.34646190
    33  C          0.30573000       0.52311000       0.84602170
    34  C          0.19427000       0.02311000       0.65397830
    35  C          0.69427000       0.47689000       0.15397830
    36  C          0.80573000      -0.02311000       0.34602170
    37  C          0.29183000       0.32171000       0.81392000
    38  C          0.20817000       0.82171000       0.68608000
    39  C          0.70817000       0.67829000       0.18608000
    40  C          0.79183000       0.17829000       0.31392000
    41  C          0.42753000       0.43121000       0.78412180
    42  C          0.07247000       0.93121000       0.71587820
    43  C          0.57247000       0.56879000       0.21587820
    44  C          0.92753000       0.06879000       0.28412180
    45  C          0.35233000       0.27661000       0.78368180
    46  C          0.14767000       0.77661000       0.71631820
    47  C          0.64767000       0.72339000       0.21631820
    48  C          0.85233000       0.22339000       0.28368180
    49  S          0.57368900       0.73657000       0.45875500
    50  S          0.92631100       0.23657000       0.04124500
    51  S          0.42631100       0.26343000       0.54124500
    52  S          0.07368900       0.76343000       0.95875500
    53  Cl         0.82214800       0.45342000       0.49897500
    54  Cl         0.67785200       0.95342000       0.00102500
    55  Cl         0.17785200       0.54658000       0.50102500
    56  Cl         0.32214800       0.04658000      -0.00102500
    57  O          0.64913000       0.12518000       0.68109150
    58  O          0.85087000       0.62518000       0.81890850
    59  O          0.35087000       0.87482000       0.31890850
    60  O          0.14913000       0.37482000       0.18109150
    61  O          0.74513000       0.37327000       0.64793140
    62  O          0.75487000       0.87327000       0.85206860
    63  O          0.25487000       0.62673000       0.35206860
    64  O          0.24513000       0.12673000       0.14793140
    65  N          0.58443000       0.74701000       0.54953150
    66  N          0.91557000       0.24701000       0.95046850
    67  N          0.41557000       0.25299000       0.45046850
    68  N          0.08443000       0.75299000       0.04953150
    69  N          0.65953000       0.08328000       0.51798160
    70  N          0.84047000       0.58328000       0.98201840
    71  N          0.34047000       0.91672000       0.48201840
    72  N          0.15953000       0.41672000       0.01798160
    73  C          0.68103000       0.18311000       0.64682000
    74  C          0.81897000       0.68311000       0.85318000
    75  C          0.31897000       0.81689000       0.35318000
    76  C          0.18103000       0.31689000       0.14682000
    77  C          0.66003000       0.06319000       0.60106180
    78  C          0.83997000       0.56319000       0.89893820
    79  C          0.33997000       0.93681000       0.39893820
    80  C          0.16003000       0.43681000       0.10106180
    81  C          0.70873000       0.16661000       0.56254180
    82  C          0.79127000       0.66661000       0.93745820
    83  C          0.29127000       0.83339000       0.43745820
    84  C          0.20873000       0.33339000       0.06254180
    85  C          0.80403000       0.08069000       0.56558180
    86  C          0.69597000       0.58069000       0.93441820
    87  C          0.19597000       0.91931000       0.43441820
    88  C          0.30403000       0.41931000       0.06558180
    89  C          0.86173000       0.20269000       0.53893180
    90  C          0.63827000       0.70269000       0.96106820
    91  C          0.13827000       0.79731000       0.46106820
    92  C          0.36173000       0.29731000       0.03893180
    93  C          0.94903000       0.13001000       0.54180190
    94  C          0.55097000       0.63001000       0.95819810
    95  C          0.05097000       0.86999000       0.45819810
    96  C          0.44903000       0.36999000       0.04180190
    97  H          0.98663400       0.21926200       0.52344000
    98  H          0.51336600       0.71926200       0.97656000
    99  H          0.01336600       0.78073800       0.47656000
   100  H          0.48663400       0.28073800       0.02344000
   101  C          0.98133000       0.92429000       0.57190190
   102  C          0.51867000       0.42429000       0.92809810
   103  C          0.01867000       0.07571000       0.42809810
   104  C          0.48133000       0.57571000       0.07190190
   105  H          0.04145900       0.87281500       0.57432800
   106  H          0.45854100       0.37281500       0.92567200
   107  H          0.95854100       0.12718500       0.42567200
   108  H          0.54145900       0.62718500       0.07432800
   109  C          0.59963000       0.86029000       0.59260180
   110  C          0.90037000       0.36029000       0.90739820
   111  C          0.40037000       0.13971000       0.40739820
   112  C          0.09963000       0.63971000       0.09260180
   113  C          0.54514000       0.73928900       0.62622000
   114  C          0.95486000       0.23928900       0.87378000
   115  C          0.45486000       0.26071100       0.37378000
   116  C          0.04514000       0.76071100       0.12622000
   117  H          0.50712400       0.59684500       0.61095700
   118  H         -0.00712400       0.09684500       0.88904300
   119  H          0.49287600       0.40315500       0.38904300
   120  H          0.00712400       0.90315500       0.11095700
   121  H          0.58383800       0.66076300       0.65204700
   122  H          0.91616200       0.16076300       0.84795300
   123  H          0.41616200       0.33923700       0.34795300
   124  H          0.08383800       0.83923700       0.15204700
   125  H          0.50862200       0.88130700       0.63741400
   126  H         -0.00862200       0.38130700       0.86258600
   127  H          0.49137800       0.11869300       0.36258600
   128  H          0.00862200       0.61869300       0.13741400
   129  C          0.77584000       0.48231200       0.69252000
   130  C          0.72416000      -0.01768800       0.80748000
   131  C          0.22416000       0.51768800       0.30748000
   132  C          0.27584000       0.01768800       0.19252000
   133  H          0.82186300       0.61723100       0.68990200
   134  H          0.67813700       0.11723100       0.81009800
   135  H          0.17813700       0.38276900       0.31009800
   136  H          0.32186300       0.88276900       0.18990200
   137  H          0.72675600       0.56883300       0.70509200
   138  H          0.77324400       0.06883300       0.79490800
   139  H          0.27324400       0.43116700       0.29490800
   140  H          0.22675600       0.93116700       0.20509200
   141  H          0.79980300       0.33524000       0.71293000
   142  H          0.70019700       0.83524000       0.78707000
   143  H          0.20019700       0.66476000       0.28707000
   144  H          0.29980300       0.16476000       0.21293000
   145  C          0.60833000       0.86491000       0.51120190
   146  C          0.89167000       0.36491000       0.98879810
   147  C          0.39167000       0.13509000       0.48879810
   148  C          0.10833000       0.63509000       0.01120190
   149  C          0.92533000       0.79408900       0.59847190
   150  C          0.57467000       0.29408900       0.90152810
   151  C          0.07467000       0.20591100       0.40152810
   152  C          0.42533000       0.70591100       0.09847190
   153  H          0.94676400       0.65028600       0.61844300
   154  H          0.55323600       0.15028600       0.88155700
   155  H          0.05323600       0.34971400       0.38155700
   156  H          0.44676400       0.84971400       0.11844300
   157  C          0.83843000       0.87461000       0.59571190
   158  C          0.66157000       0.37461000       0.90428810
   159  C          0.16157000       0.12539000       0.40428810
   160  C          0.33843000       0.62539000       0.09571190
   161  H          0.80114100       0.78862400       0.61466900
   162  H          0.69885900       0.28862400       0.88533100
   163  H          0.19885900       0.21137600       0.38533100
   164  H          0.30114100       0.71137600       0.11466900
   165  H          0.67240000       0.17811000       0.49220000
   166  H          0.82760000       0.67811000       0.00780000
   167  H          0.32760000       0.82189000       0.50780000
   168  H          0.17240000       0.32189000       0.99220000
   169  H          0.70630000       0.35390000       0.56391700
   170  H          0.79370000       0.85390000       0.93608300
   171  H          0.29370000       0.64610000       0.43608300
   172  H          0.20630000       0.14610000       0.06391700
   173  H          0.54830000       0.62790000       0.54281900
   174  H          0.95170000       0.12790000       0.95718100
   175  H          0.45170000       0.37210000       0.45718100
   176  H          0.04830000       0.87210000       0.04281900
