data_ABOVAS
_symmetry_space_group_name_H-M    'P1'
_symmetry_Int_Tables_number       1
loop_
_symmetry_equiv_pos_site_id
_symmetry_equiv_pos_as_xyz
1 x,y,z
_cell_length_a                   7.42533
_cell_length_b                   8.72603
_cell_length_c                   13.70355
_cell_angle_alpha                93.2402
_cell_angle_beta                 96.8762
_cell_angle_gamma                101.0322
loop_
_atom_site_label
_atom_site_type_symbol
_atom_site_fract_x
_atom_site_fract_y
_atom_site_fract_z
     1  I          0.87015700       0.55195300       0.25209200
     2  I          0.12984300       0.44804700       0.74790800
     3  F          0.26333000       0.55213000       0.37810150
     4  F          0.73667000       0.44787000       0.62189850
     5  F          0.36253000       0.51733000       0.56792160
     6  F          0.63747000       0.48267000       0.43207840
     7  C          0.13065000       0.52544000       0.43703000
     8  C          0.86935000       0.47456000       0.56297000
     9  C          0.94815000       0.52034000       0.39982000
    10  C          0.05185000       0.47966000       0.60018000
    11  C          0.18215000       0.50624000       0.53573000
    12  C          0.81785000       0.49376000       0.46427000
    13  C          0.28575000       0.04824000       0.13092000
    14  C          0.71425000       0.95176000       0.86908000
    15  O          0.72043000       0.61667000       0.05195170
    16  O          0.27957000       0.38333000       0.94804830
    17  N          0.43974000       0.68297000       0.05002000
    18  N          0.56026000       0.31703000       0.94998000
    19  H          0.38559900       0.58636300       0.02830300
    20  H          0.61440100       0.41363700       0.97169700
    21  O          0.39114000       0.18873000       0.16232180
    22  O          0.60886000       0.81127000       0.83767820
    23  O          0.85774000       0.09874000       0.61802000
    24  O          0.14226000       0.90126000       0.38198000
    25  C          0.62874000       0.71826000       0.06972000
    26  C          0.37126000       0.28174000       0.93028000
    27  C          0.59585000       0.85606000       0.41413000
    28  C          0.40415000       0.14394000       0.58587000
    29  H          0.53693100       0.77277600       0.44807600
    30  H          0.46306900       0.22722400       0.55192400
    31  C          0.13225000       0.73415000       0.01673000
    32  C          0.86775000       0.26585000       0.98327000
    33  H          0.11818900       0.62746100       0.98630700
    34  H          0.88181100       0.37253900       0.01369300
    35  H          0.05007900       0.73423200       0.06754700
    36  H          0.94992100       0.26576800       0.93245300
    37  H          0.09981800       0.80303000       0.96611900
    38  H          0.90018200       0.19697000       0.03388100
    39  N          0.70574000       0.86507000       0.10572000
    40  N          0.29426000       0.13493000       0.89428000
    41  H          0.82436900       0.89789700       0.10241800
    42  H          0.17563100       0.10210300       0.89758200
    43  N          0.76825000       0.97936000       0.57242000
    44  N          0.23175000       0.02064000       0.42758000
    45  O          0.71145000       0.85986000       0.61062000
    46  O          0.28855000       0.14014000       0.38938000
    47  O          0.11793000       0.02313000       0.12210190
    48  O          0.88207000       0.97687000       0.87789810
    49  C          0.40155000       0.93276000       0.11092000
    50  C          0.59845000       0.06724000       0.88908000
    51  C          0.60605000       0.97566000       0.15052000
    52  C          0.39395000       0.02434000       0.84948000
    53  H          0.65596700       0.08271500       0.13102200
    54  H          0.34403300       0.91728500       0.86897800
    55  C          0.64424000       0.97846000       0.26302000
    56  C          0.35576000       0.02154000       0.73698000
    57  C          0.32895000       0.79226000       0.06252000
    58  C          0.67105000       0.20774000       0.93748000
    59  C          0.55325000       0.85786000       0.31282000
    60  C          0.44675000       0.14214000       0.68718000
    61  H          0.46154900       0.77650100       0.27707800
    62  H          0.53845100       0.22349900       0.72292200
    63  C          0.72545000       0.97786000       0.46402000
    64  C          0.27455000       0.02214000       0.53598000
    65  C          0.77705000       0.09754000       0.31583000
    66  C          0.22295000       0.90246000       0.68417000
    67  H          0.84078300       0.17878500       0.28203600
    68  H          0.15921700       0.82121500       0.71796400
    69  C          0.81765000       0.09914000       0.41753000
    70  C          0.18235000       0.90086000       0.58247000
    71  H          0.90664300       0.18148300       0.45394100
    72  H          0.09335700       0.81851700       0.54605900
    73  C          0.29426000       0.31075000       0.18943000
    74  C          0.70574000       0.68925000       0.81057000
    75  H          0.38417400       0.40779300       0.21119600
    76  H          0.61582600       0.59220700       0.78880400
    77  H          0.21001400       0.32812600       0.13228500
    78  H          0.78998600       0.67187400       0.86771500
    79  H          0.22300700       0.27855100       0.24318200
    80  H          0.77699300       0.72144900       0.75681800
