data_ABUHIO
_symmetry_space_group_name_H-M    'P1'
_symmetry_Int_Tables_number       1
loop_
_symmetry_equiv_pos_site_id
_symmetry_equiv_pos_as_xyz
1 x,y,z
_cell_length_a                   3.84064
_cell_length_b                   10.974814
_cell_length_c                   11.152311
_cell_angle_alpha                59.6659
_cell_angle_beta                 84.5869
_cell_angle_gamma                86.8751
loop_
_atom_site_label
_atom_site_type_symbol
_atom_site_fract_x
_atom_site_fract_y
_atom_site_fract_z
     1  Cl         0.30006000       0.02832000       0.21772000
     2  Cl         0.69994000       0.97168000       0.78228000
     3  O          0.18441700       0.78005000       0.50455000
     4  O          0.81558300       0.21995000       0.49545000
     5  O          0.61711600       0.24205000       0.26145000
     6  O          0.38288400       0.75795000       0.73855000
     7  C          0.33462200       0.88663000       0.49627000
     8  C          0.66537800       0.11337000       0.50373000
     9  C          0.40312000       0.01087000       0.37227000
    10  C          0.59688000       0.98913000       0.62773000
    11  C          0.56022200       0.12977000       0.36817000
    12  C          0.43977800       0.87023000       0.63183000
    13  H          0.15029000       0.67489000       0.61611000
    14  H          0.84971000       0.32511000       0.38389000
    15  N          0.90458300       0.47634000       0.28056000
    16  N          0.09541700       0.52366000       0.71944000
    17  C          0.79667900       0.57353000       0.31927000
    18  C          0.20332100       0.42647000       0.68073000
    19  C          0.88637500       0.71261000       0.23498000
    20  C          0.11362500       0.28739000       0.76502000
    21  C          0.06802300       0.75662000       0.10828000
    22  C          0.93197700       0.24338000       0.89172000
    23  C          0.16382400       0.65692000       0.06878000
    24  C          0.83617600       0.34308000       0.93122000
    25  C          0.08152200       0.51882000       0.15958000
    26  C          0.91847800       0.48118000       0.84042000
    27  C          0.59157900       0.52252000       0.44727000
    28  C          0.40842100       0.47748000       0.55273000
    29  H          0.82677000       0.78321400       0.25498400
    30  H          0.17323000       0.21678600       0.74501600
    31  H          0.12520000       0.86592400       0.03147600
    32  H          0.87480000       0.13407600       0.96852400
    33  H          0.30016000       0.69054100       0.97483800
    34  H          0.69984000       0.30945900       0.02516200
    35  H          0.13922000       0.43971600       0.12898500
    36  H          0.86078000       0.56028400       0.87101500
