data_ACACEO
_symmetry_space_group_name_H-M    'P1'
_symmetry_Int_Tables_number       1
loop_
_symmetry_equiv_pos_site_id
_symmetry_equiv_pos_as_xyz
1 x,y,z
_cell_length_a                   18.65701
_cell_length_b                   8.66575
_cell_length_c                   10.92935
_cell_angle_alpha                90.0
_cell_angle_beta                 102.5734
_cell_angle_gamma                90.0
loop_
_atom_site_label
_atom_site_type_symbol
_atom_site_fract_x
_atom_site_fract_y
_atom_site_fract_z
     1  C          0.20402000       0.00745000       0.11964000
     2  C          0.79598000       0.50745000       0.38036000
     3  C          0.79598000      -0.00745000       0.88036000
     4  C          0.20402000       0.49255000       0.61964000
     5  C          0.20152000       0.10195000       0.22314000
     6  C          0.79848000       0.60195000       0.27686000
     7  C          0.79848000       0.89805000       0.77686000
     8  C          0.20152000       0.39805000       0.72314000
     9  C          0.26042000       0.19775000       0.27384000
    10  C          0.73958000       0.69775000       0.22616000
    11  C          0.73958000       0.80225000       0.72616000
    12  C          0.26042000       0.30225000       0.77384000
    13  H          0.25810000       0.26220000       0.34300000
    14  H          0.74190000       0.76220000       0.15700000
    15  H          0.74190000       0.73780000       0.65700000
    16  H          0.25810000       0.23780000       0.84300000
    17  C          0.32212000       0.19905000       0.22374000
    18  C          0.67788000       0.69905000       0.27626000
    19  C          0.67788000       0.80095000       0.77626000
    20  C          0.32212000       0.30095000       0.72374000
    21  H          0.36230000       0.26430000       0.25830000
    22  H          0.63770000       0.76430000       0.24170000
    23  H          0.63770000       0.73570000       0.74170000
    24  H          0.36230000       0.23570000       0.75830000
    25  C          0.32532000       0.10415000       0.12204000
    26  C          0.67468000       0.60415000       0.37796000
    27  C          0.67468000       0.89585000       0.87796000
    28  C          0.32532000       0.39585000       0.62204000
    29  C          0.26712000       0.00915000       0.07014000
    30  C          0.73288000       0.50915000       0.42986000
    31  C          0.73288000      -0.00915000       0.92986000
    32  C          0.26712000       0.49085000       0.57014000
    33  H          0.26990000       0.94500000       0.00080000
    34  H          0.73010000       0.44500000       0.49920000
    35  H          0.73010000       0.05500000      -0.00080000
    36  H          0.26990000       0.55500000       0.50080000
    37  C          0.13952000       0.90735000       0.06064000
    38  C          0.86048000       0.40735000       0.43936000
    39  C          0.86048000       0.09265000       0.93936000
    40  C          0.13952000       0.59265000       0.56064000
    41  O          0.14213150       0.82814000       0.96652000
    42  O          0.85786850       0.32814000       0.53348000
    43  O          0.85786850       0.17186000       0.03348000
    44  O          0.14213150       0.67186000       0.46652000
    45  O          0.08391160       0.91054000       0.11173000
    46  O          0.91608840       0.41054000       0.38827000
    47  O          0.91608840       0.08946000       0.88827000
    48  O          0.08391160       0.58946000       0.61173000
    49  O          0.14230160       0.10364000       0.27523000
    50  O          0.85769840       0.60364000       0.22477000
    51  O          0.85769840       0.89636000       0.72477000
    52  O          0.14230160       0.39636000       0.77523000
    53  H          0.11050000       0.04210000       0.23650000
    54  H          0.88950000       0.54210000       0.26350000
    55  H          0.88950000       0.95790000       0.76350000
    56  H          0.11050000       0.45790000       0.73650000
    57  I          0.42057315       0.10351400       0.04852300
    58  I          0.57942685       0.60351400       0.45147700
    59  I          0.57942685       0.89648600       0.95147700
    60  I          0.42057315       0.39648600       0.54852300
    61  C          0.92568000       0.68645000      -0.00296000
    62  C          0.07432000       0.18645000       0.50296000
    63  C          0.07432000       0.31355000       0.00296000
    64  C          0.92568000       0.81355000       0.49704000
    65  H          0.92070000       0.73670000       0.07190000
    66  H          0.07930000       0.23670000       0.42810000
    67  H          0.07930000       0.26330000       0.92810000
    68  H          0.92070000       0.76330000       0.57190000
    69  C          0.87118000       0.59395000       0.93674000
    70  C          0.12882000       0.09395000       0.56326000
    71  C          0.12882000       0.40605000       0.06326000
    72  C          0.87118000       0.90605000       0.43674000
    73  H          0.82870000       0.57900000       0.96980000
    74  H          0.17130000       0.07900000       0.53020000
    75  H          0.17130000       0.42100000       0.03020000
    76  H          0.82870000       0.92100000       0.46980000
    77  C          0.87708000       0.51885000       0.82424000
    78  C          0.12292000       0.01885000       0.67576000
    79  C          0.12292000       0.48115000       0.17576000
    80  C          0.87708000       0.98115000       0.32424000
    81  C          0.94278000       0.54315000       0.78124000
    82  C          0.05722000       0.04315000       0.71876000
    83  C          0.05722000       0.45685000       0.21876000
    84  C          0.94278000       0.95685000       0.28124000
    85  H          0.94990000       0.49340000       0.70730000
    86  H          0.05010000      -0.00660000       0.79270000
    87  H          0.05010000       0.50660000       0.29270000
    88  H          0.94990000       0.00660000       0.20730000
    89  C         -0.00442000       0.63845000       0.84714000
    90  C          0.00442000       0.13845000       0.65286000
    91  C          0.00442000       0.36155000       0.15286000
    92  C         -0.00442000       0.86155000       0.34714000
    93  H          0.03930000       0.65540000       0.81770000
    94  H          0.96070000       0.15540000       0.68230000
    95  H          0.96070000       0.34460000       0.18230000
    96  H          0.03930000       0.84460000       0.31770000
    97  N          0.98717810       0.70914000       0.95323000
    98  N          0.01282190       0.20914000       0.54677000
    99  N          0.01282190       0.29086000       0.04677000
   100  N          0.98717810       0.79086000       0.45323000
   101  H          0.02190000       0.77040000      -0.00600000
   102  H          0.97810000       0.27040000       0.50600000
   103  H          0.97810000       0.22960000       0.00600000
   104  H          0.02190000       0.72960000       0.49400000
   105  N          0.82352820       0.42964000       0.76173000
   106  N          0.17647180       0.92964000       0.73827000
   107  N          0.17647180       0.57036000       0.23827000
   108  N          0.82352820       0.07036000       0.26173000
   109  H          0.78330000       0.41620000       0.79000000
   110  H          0.21670000       0.91620000       0.71000000
   111  H          0.21670000       0.58380000       0.21000000
   112  H          0.78330000       0.08380000       0.29000000
   113  H          0.82830000       0.38400000       0.69190000
   114  H          0.17170000       0.88400000       0.80810000
   115  H          0.17170000       0.61600000       0.30810000
   116  H          0.82830000       0.11600000       0.19190000
   117  C          0.28892000       0.62085000      -0.00854000
   118  C          0.71108000       0.12085000       0.50854000
   119  C          0.71108000       0.37915000       0.00854000
   120  C          0.28892000       0.87915000       0.49146000
   121  H          0.23820000       0.62260000       0.95270000
   122  H          0.76180000       0.12260000       0.54730000
   123  H          0.76180000       0.37740000       0.04730000
   124  H          0.23820000       0.87740000       0.45270000
   125  C          0.33973000       0.63345000       0.91646000
   126  C          0.66027000       0.13345000       0.58354000
   127  C          0.66027000       0.36655000       0.08354000
   128  C          0.33973000       0.86655000       0.41646000
   129  H          0.32380000       0.64280000       0.82820000
   130  H          0.67620000       0.14280000       0.67180000
   131  H          0.67620000       0.35720000       0.17180000
   132  H          0.32380000       0.85720000       0.32820000
   133  C          0.41333000       0.63216000       0.97125000
   134  C          0.58667000       0.13216000       0.52875000
   135  C          0.58667000       0.36784000       0.02875000
   136  C          0.41333000       0.86784000       0.47125000
   137  H          0.44900000       0.64220000       0.92180000
   138  H          0.55100000       0.14220000       0.57820000
   139  H          0.55100000       0.35780000       0.07820000
   140  H          0.44900000       0.85780000       0.42180000
   141  C          0.43443000       0.61596000       0.10035000
   142  C          0.56557000       0.11596000       0.39965000
   143  C          0.56557000       0.38404000       0.89965000
   144  C          0.43443000       0.88404000       0.60035000
   145  H          0.48490000       0.61330000       0.14120000
   146  H          0.51510000       0.11330000       0.35880000
   147  H          0.51510000       0.38670000       0.85880000
   148  H          0.48490000       0.88670000       0.64120000
   149  C          0.38013000       0.60385000       0.16774000
   150  C          0.61987000       0.10385000       0.33226000
   151  C          0.61987000       0.39615000       0.83226000
   152  C          0.38013000       0.89615000       0.66774000
   153  H          0.39470000       0.59320000       0.25620000
   154  H          0.60530000       0.09320000       0.24380000
   155  H          0.60530000       0.40680000       0.74380000
   156  H          0.39470000       0.90680000       0.75620000
   157  N          0.30822000       0.60605000       0.11644000
   158  N          0.69178000       0.10605000       0.38356000
   159  N          0.69178000       0.39395000       0.88356000
   160  N          0.30822000       0.89395000       0.61644000
