data_ACESIN
_symmetry_space_group_name_H-M    'P1'
_symmetry_Int_Tables_number       1
loop_
_symmetry_equiv_pos_site_id
_symmetry_equiv_pos_as_xyz
1 x,y,z
_cell_length_a                   7.21341
_cell_length_b                   11.153014
_cell_length_c                   11.499315
_cell_angle_alpha                86.4993
_cell_angle_beta                 75.2773
_cell_angle_gamma                88.4813
loop_
_atom_site_label
_atom_site_type_symbol
_atom_site_fract_x
_atom_site_fract_y
_atom_site_fract_z
     1  C          0.94957000       0.70732000       0.45589190
     2  C          0.05043000       0.29268000       0.54410810
     3  H          0.92310000       0.64090000       0.51020000
     4  H          0.07690000       0.35910000       0.48980000
     5  C          0.89807000       0.82312000       0.48302000
     6  C          0.10193000       0.17688000       0.51698000
     7  H          0.83150000       0.84870000       0.55790000
     8  H          0.16850000       0.15130000       0.44210000
     9  C          0.96347000       0.89622000       0.37787180
    10  C          0.03653000       0.10378000       0.62212820
    11  H          0.94820000       0.97900000       0.36970000
    12  H          0.05180000       0.02100000       0.63030000
    13  C          0.05603000       0.82100180       0.28751170
    14  C          0.94397000       0.17899820       0.71248830
    15  C          0.14952000       0.83911160       0.16127160
    16  C          0.85048000       0.16088840       0.83872840
    17  C          0.20463000       0.73762170       0.09736170
    18  C          0.79537000       0.26237830       0.90263830
    19  C          0.28563000       0.73819180       0.97209820
    20  C          0.71437000       0.26180820       0.02790180
    21  C          0.31605000       0.61892000       0.94118000
    22  C          0.68395000       0.38108000       0.05882000
    23  H          0.36740000       0.59130000       0.86480000
    24  H          0.63260000       0.40870000       0.13520000
    25  C          0.25455000       0.55102000       0.04672000
    26  C          0.74545000       0.44898000       0.95328000
    27  H          0.25870000       0.46750000       0.05260000
    28  H          0.74130000       0.53250000       0.94740000
    29  C          0.19032000       0.95088160       0.09056160
    30  C          0.80968000       0.04911840       0.90943840
    31  C          0.15603000       0.06612190       0.13856190
    32  C          0.84397000       0.93387810       0.86143810
    33  H          0.10590000       0.07090000       0.22110000
    34  H          0.89410000       0.92910000       0.77890000
    35  C          0.19374000       0.17002000       0.06852000
    36  C          0.80626000       0.82998000       0.93148000
    37  H          0.16770000       0.24380000       0.10300000
    38  H          0.83230000       0.75620000       0.89700000
    39  C          0.27173000       0.16492170       0.94444810
    40  C          0.72827000       0.83507830       0.05555190
    41  C          0.31213000       0.05759180       0.89273830
    42  C          0.68787000       0.94240820       0.10726170
    43  H          0.36540000       0.05540000       0.81030000
    44  H          0.63460000       0.94460000       0.18970000
    45  C          0.27283000       0.94970160       0.96453840
    46  C          0.72717000       0.05029840       0.03546160
    47  B          0.12064000       0.58572000       0.27722000
    48  B          0.87936000       0.41428000       0.72278000
    49  Cl         0.31843100       0.29688500       0.85552400
    50  Cl         0.68156900       0.70311500       0.14447600
    51  F          0.27323000       0.53966160       0.31962150
    52  F          0.72677000       0.46033840       0.68037850
    53  F          0.97787000       0.50076150       0.29954160
    54  F          0.02213000       0.49923850       0.70045840
    55  N          0.04552000       0.70337160       0.33795150
    56  N          0.95448000       0.29662840       0.66204850
    57  N          0.18623000       0.62091150       0.14215160
    58  N          0.81377000       0.37908850       0.85784840
    59  N          0.31633000       0.84469150       0.90841850
    60  N          0.68367000       0.15530850       0.09158150
    61  H          0.36040000       0.83830000       0.82770000
    62  H          0.63960000       0.16170000       0.17230000
    63  C          0.40855000       0.63963000       0.56953000
    64  C          0.59145000       0.36037000       0.43047000
    65  H          0.54610000       0.63800000       0.54870000
    66  H          0.45390000       0.36200000       0.45130000
    67  H          0.36380000       0.61050000       0.50470000
    68  H          0.63620000       0.38950000       0.49530000
    69  H          0.36080000       0.58940000       0.64120000
    70  H          0.63920000       0.41060000       0.35880000
    71  C          0.41354000       0.85173000       0.44632000
    72  C          0.58646000       0.14827000       0.55368000
    73  H          0.38230000       0.93590000       0.44350000
    74  H          0.61770000       0.06410000       0.55650000
    75  H          0.35600000       0.81200000       0.39270000
    76  H          0.64400000       0.18800000       0.60730000
    77  H          0.55010000       0.84110000       0.42200000
    78  H          0.44990000       0.15890000       0.57800000
    79  O          0.44793000       0.84221170       0.66743140
    80  O          0.55207000       0.15778830       0.33256860
    81  S          0.32481800       0.78945600       0.59524500
    82  S          0.67518200       0.21054400       0.40475500
