data_ACESEJ
_symmetry_space_group_name_H-M    'P1'
_symmetry_Int_Tables_number       1
loop_
_symmetry_equiv_pos_site_id
_symmetry_equiv_pos_as_xyz
1 x,y,z
_cell_length_a                   7.4643
_cell_length_b                   19.8499
_cell_length_c                   11.9105
_cell_angle_alpha                90.0
_cell_angle_beta                 93.3279
_cell_angle_gamma                90.0
loop_
_atom_site_label
_atom_site_type_symbol
_atom_site_fract_x
_atom_site_fract_y
_atom_site_fract_z
     1  B          0.44636000       0.61193000       0.15514000
     2  B          0.55364000       0.11193000       0.34486000
     3  B          0.55364000       0.38807000       0.84486000
     4  B          0.44636000       0.88807000       0.65514000
     5  C          0.50575000       0.72152000       0.26434000
     6  C          0.49425000       0.22152000       0.23566000
     7  C          0.49425000       0.27848000       0.73566000
     8  C          0.50575000       0.77848000       0.76434000
     9  H          0.54540000       0.74510000       0.20300000
    10  H          0.45460000       0.24510000       0.29700000
    11  H          0.45460000       0.25490000       0.79700000
    12  H          0.54540000       0.75490000       0.70300000
    13  C          0.42725000       0.69662000       0.43524000
    14  C          0.57275000       0.19662000       0.06476000
    15  C          0.57275000       0.30338000       0.56476000
    16  C          0.42725000       0.80338000       0.93524000
    17  H          0.40350000       0.70050000       0.51080000
    18  H          0.59650000       0.20050000      -0.01080000
    19  H          0.59650000       0.29950000       0.48920000
    20  H          0.40350000       0.79950000       0.01080000
    21  C          0.40604000       0.63915190       0.36953000
    22  C          0.59396000       0.13915190       0.13047000
    23  C          0.59396000       0.36084810       0.63047000
    24  C          0.40604000       0.86084810       0.86953000
    25  C          0.34314000       0.57149190       0.38853000
    26  C          0.65686000       0.07149190       0.11147000
    27  C          0.65686000       0.42850810       0.61147000
    28  C          0.34314000       0.92850810       0.88853000
    29  C          0.33154000       0.52882000       0.29673000
    30  C          0.66846000       0.02882000       0.20327000
    31  C          0.66846000       0.47118000       0.70327000
    32  C          0.33154000       0.97118000       0.79673000
    33  C          0.27335000       0.46162000       0.29863000
    34  C          0.72665000       0.96162000       0.20137000
    35  C          0.72665000       0.53838000       0.70137000
    36  C          0.27335000       0.03838000       0.79863000
    37  C          0.27836000       0.43633000       0.18904000
    38  C          0.72164000       0.93633000       0.31096000
    39  C          0.72164000       0.56367000       0.81096000
    40  C          0.27836000       0.06367000       0.68904000
    41  H          0.24730000       0.39320000       0.16440000
    42  H          0.75270000       0.89320000       0.33560000
    43  H          0.75270000       0.60680000       0.83560000
    44  H          0.24730000       0.10680000       0.66440000
    45  C          0.33756000       0.48743000       0.12654000
    46  C          0.66244000       0.98743000       0.37346000
    47  C          0.66244000       0.51257000       0.87346000
    48  C          0.33756000       0.01257000       0.62654000
    49  H          0.35320000       0.48420000       0.04980000
    50  H          0.64680000       0.98420000       0.45020000
    51  H          0.64680000       0.51580000       0.95020000
    52  H          0.35320000       0.01580000       0.54980000
    53  C          0.28694000       0.54170180       0.49123000
    54  C          0.71306000       0.04170180       0.00877000
    55  C          0.71306000       0.45829820       0.50877000
    56  C          0.28694000       0.95829820      -0.00877000
    57  C          0.28545000       0.57712000       0.59333000
    58  C          0.71455000       0.07712000       0.90667000
    59  C          0.71455000       0.42288000       0.40667000
    60  C          0.28545000       0.92288000       0.09333000
    61  H          0.32360000       0.62170000       0.59630000
    62  H          0.67640000       0.12170000       0.90370000
    63  H          0.67640000       0.37830000       0.40370000
    64  H          0.32360000       0.87830000       0.09630000
    65  C          0.22845000       0.54692000       0.68873000
    66  C          0.77155000       0.04692000       0.81127000
    67  C          0.77155000       0.45308000       0.31127000
    68  C          0.22845000       0.95308000       0.18873000
    69  C          0.17335000       0.47982000       0.68814000
    70  C          0.82665000       0.97982000       0.81186000
    71  C          0.82665000       0.52018000       0.31186000
    72  C          0.17335000       0.02018000       0.18814000
    73  H          0.13510000       0.45980000       0.75310000
    74  H          0.86490000       0.95980000       0.74690000
    75  H          0.86490000       0.54020000       0.24690000
    76  H          0.13510000       0.04020000       0.25310000
    77  C          0.17655000       0.44372000       0.58974000
    78  C          0.82345000       0.94372000       0.91026000
    79  C          0.82345000       0.55628000       0.41026000
    80  C          0.17655000       0.05628000       0.08974000
    81  H          0.14230000       0.39870000       0.58890000
    82  H          0.85770000       0.89870000       0.91110000
    83  H          0.85770000       0.60130000       0.41110000
    84  H          0.14230000       0.10130000       0.08890000
    85  C          0.23024000       0.47352000       0.49133000
    86  C          0.76976000       0.97352000       0.00867000
    87  C          0.76976000       0.52648000       0.50867000
    88  C          0.23024000       0.02648000      -0.00867000
    89  C          0.49076000       0.74762000       0.36694000
    90  C          0.50924000       0.24762000       0.13306000
    91  C          0.50924000       0.25238000       0.63306000
    92  C          0.49076000       0.75238000       0.86694000
    93  H          0.51760000       0.79160000       0.38870000
    94  H          0.48240000       0.29160000       0.11130000
    95  H          0.48240000       0.20840000       0.61130000
    96  H          0.51760000       0.70840000       0.88870000
    97  Cl         0.22520170       0.59177700       0.81243900
    98  Cl         0.77479830       0.09177700       0.68756100
    99  Cl         0.77479830       0.40822300       0.18756100
   100  Cl         0.22520170       0.90822300       0.31243900
   101  F          0.33814000       0.64234150       0.07212000
   102  F          0.66186000       0.14234150       0.42788000
   103  F          0.66186000       0.35765850       0.92788000
   104  F          0.33814000       0.85765850       0.57212000
   105  F          0.61673000       0.60470140       0.11492000
   106  F          0.38327000       0.10470140       0.38508000
   107  F          0.38327000       0.39529860       0.88508000
   108  F          0.61673000       0.89529860       0.61492000
   109  N          0.45514000       0.65576160       0.26182000
   110  N          0.54486000       0.15576160       0.23818000
   111  N          0.54486000       0.34423840       0.73818000
   112  N          0.45514000       0.84423840       0.76182000
   113  N          0.37164000       0.54409190       0.18803000
   114  N          0.62836000       0.04409190       0.31197000
   115  N          0.62836000       0.45590810       0.81197000
   116  N          0.37164000       0.95590810       0.68803000
   117  N          0.22544000       0.43544180       0.39713000
   118  N          0.77456000       0.93544180       0.10287000
   119  N          0.77456000       0.56455820       0.60287000
   120  N          0.22544000       0.06455820       0.89713000
   121  H          0.18660000       0.38830000       0.40740000
   122  H          0.81340000       0.88830000       0.09260000
   123  H          0.81340000       0.61170000       0.59260000
   124  H          0.18660000       0.11170000       0.90740000
   125  C          0.01187000       0.70583000       0.22864000
   126  C         -0.01187000       0.20583000       0.27136000
   127  C         -0.01187000       0.29417000       0.77136000
   128  C          0.01187000       0.79417000       0.72864000
   129  H          0.07370000       0.72770000       0.29130000
   130  H          0.92630000       0.22770000       0.20870000
   131  H          0.92630000       0.27230000       0.70870000
   132  H          0.07370000       0.77230000       0.79130000
   133  H          0.07170000       0.66430000       0.21280000
   134  H          0.92830000       0.16430000       0.28720000
   135  H          0.92830000       0.33570000       0.78720000
   136  H          0.07170000       0.83570000       0.71280000
   137  H          0.89050000       0.69640000       0.24630000
   138  H          0.10950000       0.19640000       0.25370000
   139  H          0.10950000       0.30360000       0.75370000
   140  H          0.89050000       0.80360000       0.74630000
   141  C          0.93357000       0.69783000       0.00964000
   142  C          0.06643000       0.19783000       0.49036000
   143  C          0.06643000       0.30217000      -0.00964000
   144  C          0.93357000       0.80217000       0.50964000
   145  H          0.84780000       0.66860000       0.04190000
   146  H          0.15220000       0.16860000       0.45810000
   147  H          0.15220000       0.33140000       0.95810000
   148  H          0.84780000       0.83140000       0.54190000
   149  H          0.03300000       0.67160000       0.98640000
   150  H          0.96700000       0.17160000       0.51360000
   151  H          0.96700000       0.32840000       0.01360000
   152  H          0.03300000       0.82840000       0.48640000
   153  H          0.87760000       0.72060000       0.94560000
   154  H          0.12240000       0.22060000       0.55440000
   155  H          0.12240000       0.27940000       0.05440000
   156  H          0.87760000       0.77940000       0.44560000
   157  O          0.85475000       0.80430190       0.12134000
   158  O          0.14525000       0.30430190       0.37866000
   159  O          0.14525000       0.19569810       0.87866000
   160  O          0.85475000       0.69569810       0.62134000
   161  S          0.01120170       0.75811700       0.11104120
   162  S         -0.01120170       0.25811700       0.38895880
   163  S         -0.01120170       0.24188300       0.88895880
   164  S          0.01120170       0.74188300       0.61104120
