data_AFIGED
_symmetry_space_group_name_H-M    'P1'
_symmetry_Int_Tables_number       1
loop_
_symmetry_equiv_pos_site_id
_symmetry_equiv_pos_as_xyz
1 x,y,z
_cell_length_a                   6.18792
_cell_length_b                   19.92747
_cell_length_c                   6.98462
_cell_angle_alpha                90.0
_cell_angle_beta                 91.19901
_cell_angle_gamma                90.0
loop_
_atom_site_label
_atom_site_type_symbol
_atom_site_fract_x
_atom_site_fract_y
_atom_site_fract_z
     1  C          0.32842000       0.39314600       0.57841180
     2  C          0.67158000       0.89314600       0.92158820
     3  C          0.67158000       0.60685400       0.42158820
     4  C          0.32842000       0.10685400       0.07841180
     5  C          0.23082000       0.33121600       0.61501190
     6  C          0.76918000       0.83121600       0.88498810
     7  C          0.76918000       0.66878400       0.38498810
     8  C          0.23082000       0.16878400       0.11501190
     9  H          0.09290000       0.33000000       0.66540000
    10  H          0.90710000       0.83000000       0.83460000
    11  H          0.90710000       0.67000000       0.33460000
    12  H          0.09290000       0.17000000       0.16540000
    13  C          0.33652000       0.27233600       0.57715190
    14  C          0.66348000       0.77233600       0.92284810
    15  C          0.66348000       0.72766400       0.42284810
    16  C          0.33652000       0.22766400       0.07715190
    17  H          0.27110000       0.23130000       0.60190000
    18  H          0.72890000       0.73130000       0.89810000
    19  H          0.72890000       0.76870000       0.39810000
    20  H          0.27110000       0.26870000       0.10190000
    21  C          0.54092000       0.27456600       0.50202180
    22  C          0.45908000       0.77456600      -0.00202180
    23  C          0.45908000       0.72543400       0.49797820
    24  C          0.54092000       0.22543400       0.00202180
    25  C          0.63892000       0.33516700       0.45997180
    26  C          0.36108000       0.83516700       0.04002820
    27  C          0.36108000       0.66483300       0.54002820
    28  C          0.63892000       0.16483300       0.95997180
    29  H          0.77560000       0.33590000       0.40720000
    30  H          0.22440000       0.83590000       0.09280000
    31  H          0.22440000       0.66410000       0.59280000
    32  H          0.77560000       0.16410000       0.90720000
    33  C          0.53302000       0.39403700       0.49662000
    34  C          0.46698000       0.89403700       0.00338000
    35  C          0.46698000       0.60596300       0.50338000
    36  C          0.53302000       0.10596300      -0.00338000
    37  H          0.59740000       0.43480000       0.46700000
    38  H          0.40260000       0.93480000       0.03300000
    39  H          0.40260000       0.56520000       0.53300000
    40  H          0.59740000       0.06520000       0.96700000
    41  N          0.65536190       0.21262600       0.46944160
    42  N          0.34463810       0.71262600       0.03055840
    43  N          0.34463810       0.78737400       0.53055840
    44  N          0.65536190       0.28737400       0.96944160
    45  O          0.84102190       0.21550600       0.41132000
    46  O          0.15897810       0.71550600       0.08868000
    47  O          0.15897810       0.78449400       0.58868000
    48  O          0.84102190       0.28449400       0.91132000
    49  O          0.56486190       0.15891500       0.50020170
    50  O          0.43513810       0.65891500      -0.00020170
    51  O          0.43513810       0.84108500       0.49979830
    52  O          0.56486190       0.34108500       0.00020170
    53  O          0.23383180       0.45125500       0.61778160
    54  O          0.76616820       0.95125500       0.88221840
    55  O          0.76616820       0.54874500       0.38221840
    56  O          0.23383180       0.04874500       0.11778160
    57  H          0.13300000       0.44470000       0.68980000
    58  H          0.86700000       0.94470000       0.81020000
    59  H          0.86700000       0.55530000       0.31020000
    60  H          0.13300000       0.05530000       0.18980000
    61  C          0.80412000      -0.00321800       0.39192000
    62  C          0.19588000       0.49678200       0.10808000
    63  C          0.19588000       0.00321800       0.60808000
    64  C          0.80412000       0.50321800       0.89192000
    65  H          0.72740000       0.99150000       0.27030000
    66  H          0.27260000       0.49150000       0.22970000
    67  H          0.27260000       0.00850000       0.72970000
    68  H          0.72740000       0.50850000       0.77030000
    69  H          0.69820000       0.00240000       0.49110000
    70  H          0.30180000       0.50240000       0.00890000
    71  H          0.30180000      -0.00240000       0.50890000
    72  H          0.69820000       0.49760000      -0.00890000
    73  C          0.06203000       0.06407700       0.56742000
    74  C          0.93797000       0.56407700       0.93258000
    75  C          0.93797000       0.93592300       0.43258000
    76  C          0.06203000       0.43592300       0.06742000
    77  H          0.96050000       0.07070000       0.66970000
    78  H          0.03950000       0.57070000       0.83030000
    79  H          0.03950000       0.92930000       0.33030000
    80  H          0.96050000       0.42930000       0.16970000
    81  H          0.15450000       0.10330000       0.56180000
    82  H          0.84550000       0.60330000       0.93820000
    83  H          0.84550000       0.89670000       0.43820000
    84  H          0.15450000       0.39670000       0.06180000
    85  N          0.94392000       0.05619600       0.38520180
    86  N          0.05608000       0.55619600       0.11479820
    87  N          0.05608000       0.94380400       0.61479820
    88  N          0.94392000       0.44380400       0.88520180
    89  H          0.86730000       0.08731000       0.36230000
    90  H          0.13270000       0.58731000       0.13770000
    91  H          0.13270000       0.91269000       0.63770000
    92  H          0.86730000       0.41269000       0.86230000
