data_AFUHEQ
_symmetry_space_group_name_H-M    'P1'
_symmetry_Int_Tables_number       1
loop_
_symmetry_equiv_pos_site_id
_symmetry_equiv_pos_as_xyz
1 x,y,z
_cell_length_a                   11.959913
_cell_length_b                   5.61426
_cell_length_c                   18.161819
_cell_angle_alpha                90.0
_cell_angle_beta                 105.05301
_cell_angle_gamma                90.0
loop_
_atom_site_label
_atom_site_type_symbol
_atom_site_fract_x
_atom_site_fract_y
_atom_site_fract_z
     1  Cl         0.87008100       0.38362000       0.32378700
     2  Cl         0.12991900       0.88362000       0.67621300
     3  N          0.96247000       0.20117000       0.22522000
     4  N          0.03753000       0.70117000       0.77478000
     5  O          0.02903000       0.75826000       0.39254170
     6  O          0.97097000       0.25826000       0.60745830
     7  O          0.16682000       0.88435000       0.34281150
     8  O          0.83318000       0.38435000       0.65718850
     9  C          0.08763000       0.74298000       0.34582000
    10  C          0.91237000       0.24298000       0.65418000
    11  C          0.97687000       0.37668000       0.27502000
    12  C          0.02313000       0.87668000       0.72498000
    13  C          0.06583000       0.54427000       0.28762000
    14  C          0.93417000       0.04427000       0.71238000
    15  C          0.14293000       0.51408000       0.24332000
    16  C          0.85707000       0.01408000       0.75668000
    17  H          0.20490000       0.61860000       0.24920000
    18  H          0.79510000       0.11860000       0.75080000
    19  C          0.13014000       0.33308000       0.19092000
    20  C          0.86986000       0.83308000       0.80908000
    21  H          0.18160000       0.31590000       0.16070000
    22  H          0.81840000       0.81590000       0.83930000
    23  C          0.03974000       0.17868000       0.18443000
    24  C          0.96026000       0.67868000       0.81557000
    25  H          0.03180000       0.05290000       0.15010000
    26  H          0.96820000       0.55290000       0.84990000
    27  N          0.44923000       0.43796000       0.85891190
    28  N          0.55077000       0.93796000       0.14108810
    29  N          0.25373000       0.37697000       0.79332000
    30  N          0.74627000       0.87697000       0.20668000
    31  H          0.26760000       0.24040000       0.77610000
    32  H          0.73240000       0.74040000       0.22390000
    33  H          0.18430000       0.43210000       0.78190000
    34  H          0.81570000       0.93210000       0.21810000
    35  S          0.31116100       0.77812000       0.87393700
    36  S          0.68883900       0.27812000       0.12606300
    37  C          0.34074000       0.50438000       0.83802000
    38  C          0.65926000       0.00438000       0.16198000
    39  C          0.51554000       0.61147000       0.90482000
    40  C          0.48446000       0.11147000       0.09518000
    41  C          0.45623000       0.80348000       0.91742000
    42  C          0.54377000       0.30348000       0.08258000
    43  H          0.48960000       0.93420000       0.94620000
    44  H          0.51040000       0.43420000       0.05380000
    45  C          0.63964000       0.57017000       0.93362000
    46  C          0.36036000       0.07017000       0.06638000
    47  C          0.69243000       0.37028000       0.91272000
    48  C          0.30757000       0.87028000       0.08728000
    49  H          0.64910000       0.26140000       0.87830000
    50  H          0.35090000       0.76140000       0.12170000
    51  C          0.81044000       0.33319000       0.94343000
    52  C          0.18956000       0.83319000       0.05657000
    53  H          0.84480000       0.19980000       0.92820000
    54  H          0.15520000       0.69980000       0.07180000
    55  C          0.87654000       0.48371000      -0.00547000
    56  C          0.12346000      -0.01629000       0.00547000
    57  H          0.95510000       0.45430000       0.01460000
    58  H          0.04490000       0.95430000       0.98540000
    59  C          0.82504000       0.68249000       0.01623000
    60  C          0.17496000       0.18249000       0.98377000
    61  H          0.86890000       0.78830000       0.05150000
    62  H          0.13110000       0.28830000       0.94850000
    63  C          0.70714000       0.72489000       0.98543000
    64  C          0.29286000       0.22489000       0.01457000
    65  H          0.67350000       0.86000000       0.00020000
    66  H          0.32650000       0.36000000      -0.00020000
    67  N          0.76353000       0.72856000       0.55649170
    68  N          0.23647000       0.22856000       0.44350830
    69  H          0.77930000       0.61910000       0.59080000
    70  H          0.22070000       0.11910000       0.40920000
    71  N          0.90703000       0.61317000       0.49832000
    72  N          0.09297000       0.11317000       0.50168000
    73  H          0.92870000       0.49800000       0.53000000
    74  H          0.07130000      -0.00200000       0.47000000
    75  H          0.94140000       0.63720000       0.46290000
    76  H          0.05860000       0.13720000       0.53710000
    77  S          0.76831110      -0.01338000       0.44322700
    78  S          0.23168890       0.48662000       0.55677300
    79  C          0.82174000       0.75158000       0.50392000
    80  C          0.17826000       0.25158000       0.49608000
    81  C          0.67533000       0.89337000       0.55242000
    82  C          0.32467000       0.39337000       0.44758000
    83  C          0.66793000       0.04328000       0.49402000
    84  C          0.33207000       0.54328000       0.50598000
    85  H          0.61400000       0.16580000       0.48200000
    86  H          0.38600000       0.66580000       0.51800000
    87  C          0.60453000       0.88628000       0.60722000
    88  C          0.39547000       0.38628000       0.39278000
    89  C          0.52914000       0.06899000       0.61033000
    90  C          0.47086000       0.56899000       0.38967000
    91  H          0.52270000       0.19640000       0.57680000
    92  H          0.47730000       0.69640000       0.42320000
    93  C          0.46295000       0.06621000       0.66224000
    94  C          0.53705000       0.56621000       0.33776000
    95  H          0.41310000       0.19230000       0.66380000
    96  H          0.58690000       0.69230000       0.33620000
    97  C          0.47024000       0.87851100       0.71143000
    98  C          0.52976000       0.37851100       0.28857000
    99  H          0.42640000       0.87600000       0.74690000
   100  H          0.57360000       0.37600000       0.25310000
   101  C          0.54244000       0.69759000       0.70733000
   102  C          0.45756000       0.19759000       0.29267000
   103  H          0.54740000       0.56830000       0.74000000
   104  H          0.45260000       0.06830000       0.26000000
   105  C          0.60863000       0.69948000       0.65602000
   106  C          0.39137000       0.19948000       0.34398000
   107  H          0.65720000       0.57120000       0.65450000
   108  H          0.34280000       0.07120000       0.34550000
