data_AFUHAN
_symmetry_space_group_name_H-M    'P1'
_symmetry_Int_Tables_number       1
loop_
_symmetry_equiv_pos_site_id
_symmetry_equiv_pos_as_xyz
1 x,y,z
_cell_length_a                   11.53592
_cell_length_b                   30.28154
_cell_length_c                   7.57001
_cell_angle_alpha                90.0
_cell_angle_beta                 102.3662
_cell_angle_gamma                90.0
loop_
_atom_site_label
_atom_site_type_symbol
_atom_site_fract_x
_atom_site_fract_y
_atom_site_fract_z
     1  I          0.61083218       0.71307360       0.56704300
     2  I          0.38916782       0.71307360       0.93295700
     3  I          0.11083218       0.21307360       0.56704300
     4  I          0.88916782       0.21307360       0.93295700
     5  I          0.38916782       0.28692640       0.43295700
     6  I          0.61083218       0.28692640       0.06704300
     7  I          0.88916782       0.78692640       0.43295700
     8  I          0.11083218       0.78692640       0.06704300
     9  F          0.73012000       0.66196600       0.93363000
    10  F          0.26988000       0.66196600       0.56637000
    11  F          0.23012000       0.16196600       0.93363000
    12  F          0.76988000       0.16196600       0.56637000
    13  F          0.26988000       0.33803400       0.06637000
    14  F          0.73012000       0.33803400       0.43363000
    15  F          0.76988000       0.83803400       0.06637000
    16  F          0.23012000       0.83803400       0.43363000
    17  F          0.66437190       0.81045600       0.73843000
    18  F          0.33562810       0.81045600       0.76157000
    19  F          0.16437190       0.31045600       0.73843000
    20  F          0.83562810       0.31045600       0.76157000
    21  F          0.33562810       0.18954400       0.26157000
    22  F          0.66437190       0.18954400       0.23843000
    23  F          0.83562810       0.68954400       0.26157000
    24  F          0.16437190       0.68954400       0.23843000
    25  C          0.69573000       0.73519100       0.82495000
    26  C          0.30427000       0.73519100       0.67505000
    27  C          0.19573000       0.23519100       0.82495000
    28  C          0.80427000       0.23519100       0.67505000
    29  C          0.30427000       0.26480900       0.17505000
    30  C          0.69573000       0.26480900       0.32495000
    31  C          0.80427000       0.76480900       0.17505000
    32  C          0.19573000       0.76480900       0.32495000
    33  C          0.70623000       0.77978110       0.86646000
    34  C          0.29377000       0.77978110       0.63354000
    35  C          0.20623000       0.27978110       0.86646000
    36  C          0.79377000       0.27978110       0.63354000
    37  C          0.29377000       0.22021890       0.13354000
    38  C          0.70623000       0.22021890       0.36646000
    39  C          0.79377000       0.72021890       0.13354000
    40  C          0.20623000       0.72021890       0.36646000
    41  C          0.74003000       0.70593110       0.96266000
    42  C          0.25997000       0.70593110       0.53734000
    43  C          0.24003000       0.20593110       0.96266000
    44  C          0.75997000       0.20593110       0.53734000
    45  C          0.25997000       0.29406890       0.03734000
    46  C          0.74003000       0.29406890       0.46266000
    47  C          0.75997000       0.79406890       0.03734000
    48  C          0.24003000       0.79406890       0.46266000
    49  O          0.50000000       0.67997110       0.25000000
    50  O          0.00000000       0.17997110       0.25000000
    51  O          0.50000000       0.32002890       0.75000000
    52  O         -0.00000000       0.82002890       0.75000000
    53  N          0.50000000       0.63610120       0.25000000
    54  N          0.00000000       0.13610120       0.25000000
    55  N          0.50000000       0.36389880       0.75000000
    56  N         -0.00000000       0.86389880       0.75000000
    57  C          0.39923000       0.42583120       0.26615000
    58  C          0.60077000       0.42583120       0.23385000
    59  C          0.89923000       0.92583120       0.26615000
    60  C          0.10077000       0.92583120       0.23385000
    61  C          0.60077000       0.57416880       0.73385000
    62  C          0.39923000       0.57416880       0.76615000
    63  C          0.10077000       0.07416880       0.73385000
    64  C          0.89923000       0.07416880       0.76615000
    65  H          0.33083000       0.41061120       0.27545000
    66  H          0.66917000       0.41061120       0.22455000
    67  H          0.83083000       0.91061120       0.27545000
    68  H          0.16917000       0.91061120       0.22455000
    69  H          0.66917000       0.58938880       0.72455000
    70  H          0.33083000       0.58938880       0.77545000
    71  H          0.16917000       0.08938880       0.72455000
    72  H          0.83083000       0.08938880       0.77545000
    73  C          0.50000000       0.40265150       0.25000000
    74  C          0.00000000       0.90265150       0.25000000
    75  C          0.50000000       0.59734850       0.75000000
    76  C         -0.00000000       0.09734850       0.75000000
    77  H          0.50000000       0.37194150       0.25000000
    78  H          0.00000000       0.87194150       0.25000000
    79  H          0.50000000       0.62805850       0.75000000
    80  H         -0.00000000       0.12805850       0.75000000
    81  C          0.50000000       0.54397140       0.25000000
    82  C          0.00000000       0.04397140       0.25000000
    83  C          0.50000000       0.45602860       0.75000000
    84  C         -0.00000000       0.95602860       0.75000000
    85  C          0.39693000       0.56843120       0.24126000
    86  C          0.60307000       0.56843120       0.25874000
    87  C          0.89693000       0.06843120       0.24126000
    88  C          0.10307000       0.06843120       0.25874000
    89  C          0.60307000       0.43156880       0.75874000
    90  C          0.39693000       0.43156880       0.74126000
    91  C          0.10307000       0.93156880       0.75874000
    92  C          0.89693000       0.93156880       0.74126000
    93  H          0.32523000       0.55370120       0.23296000
    94  H          0.67477000       0.55370120       0.26704000
    95  H          0.82523000       0.05370120       0.23296000
    96  H          0.17477000       0.05370120       0.26704000
    97  H          0.67477000       0.44629880       0.76704000
    98  H          0.32523000       0.44629880       0.73296000
    99  H          0.17477000       0.94629880       0.76704000
   100  H          0.82523000       0.94629880       0.73296000
   101  C          0.50000000       0.49515140       0.25000000
   102  C          0.00000000       0.99515140       0.25000000
   103  C          0.50000000       0.50484860       0.75000000
   104  C         -0.00000000       0.00484860       0.75000000
   105  C          0.40003000       0.47126110       0.26825000
   106  C          0.59997000       0.47126110       0.23175000
   107  C          0.90003000       0.97126110       0.26825000
   108  C          0.09997000       0.97126110       0.23175000
   109  C          0.59997000       0.52873890       0.73175000
   110  C          0.40003000       0.52873890       0.76825000
   111  C          0.09997000       0.02873890       0.73175000
   112  C          0.90003000       0.02873890       0.76825000
   113  H          0.33233000       0.48635110       0.28215000
   114  H          0.66767000       0.48635110       0.21785000
   115  H          0.83233000       0.98635110       0.28215000
   116  H          0.16767000       0.98635110       0.21785000
   117  H          0.66767000       0.51364890       0.71785000
   118  H          0.33233000       0.51364890       0.78215000
   119  H          0.16767000       0.01364890       0.71785000
   120  H          0.83233000       0.01364890       0.78215000
   121  C          0.39833000       0.61370120       0.24446000
   122  C          0.60167000       0.61370120       0.25554000
   123  C          0.89833000       0.11370120       0.24446000
   124  C          0.10167000       0.11370120       0.25554000
   125  C          0.60167000       0.38629880       0.75554000
   126  C          0.39833000       0.38629880       0.74446000
   127  C          0.10167000       0.88629880       0.75554000
   128  C          0.89833000       0.88629880       0.74446000
   129  H          0.32833000       0.62911120       0.24266000
   130  H          0.67167000       0.62911120       0.25734000
   131  H          0.82833000       0.12911120       0.24266000
   132  H          0.17167000       0.12911120       0.25734000
   133  H          0.67167000       0.37088880       0.75734000
   134  H          0.32833000       0.37088880       0.74266000
   135  H          0.17167000       0.87088880       0.75734000
   136  H          0.82833000       0.87088880       0.74266000
   137  N          0.61272000       0.96129100       0.37274000
   138  N          0.38728000       0.96129100       0.12726000
   139  N          0.11272000       0.46129100       0.37274000
   140  N          0.88728000       0.46129100       0.12726000
   141  N          0.38728000       0.03870900       0.62726000
   142  N          0.61272000       0.03870900       0.87274000
   143  N          0.88728000       0.53870900       0.62726000
   144  N          0.11272000       0.53870900       0.87274000
   145  C          0.61083000       0.04006130       0.37365000
   146  C          0.38917000       0.04006130       0.12635000
   147  C          0.11083000       0.54006130       0.37365000
   148  C          0.88917000       0.54006130       0.12635000
   149  C          0.38917000       0.95993870       0.62635000
   150  C          0.61083000       0.95993870       0.87365000
   151  C          0.88917000       0.45993870       0.62635000
   152  C          0.11083000       0.45993870       0.87365000
   153  H          0.68353000       0.04057130       0.45555000
   154  H          0.31647000       0.04057130       0.04445000
   155  H          0.18353000       0.54057130       0.45555000
   156  H          0.81647000       0.54057130       0.04445000
   157  H          0.31647000       0.95942870       0.54445000
   158  H          0.68353000       0.95942870       0.95555000
   159  H          0.81647000       0.45942870       0.54445000
   160  H          0.18353000       0.45942870       0.95555000
   161  C          0.61013000       0.88222140       0.37156000
   162  C          0.38987000       0.88222140       0.12844000
   163  C          0.11013000       0.38222140       0.37156000
   164  C          0.88987000       0.38222140       0.12844000
   165  C          0.38987000       0.11777860       0.62844000
   166  C          0.61013000       0.11777860       0.87156000
   167  C          0.88987000       0.61777860       0.62844000
   168  C          0.11013000       0.61777860       0.87156000
   169  H          0.68343000       0.88165140       0.45186000
   170  H          0.31657000       0.88165140       0.04814000
   171  H          0.18343000       0.38165140       0.45186000
   172  H          0.81657000       0.38165140       0.04814000
   173  H          0.31657000       0.11834860       0.54814000
   174  H          0.68343000       0.11834860       0.95186000
   175  H          0.81657000       0.61834860       0.54814000
   176  H          0.18343000       0.61834860       0.95186000
   177  C          0.55683000      -0.00110880       0.31254000
   178  C          0.44317000      -0.00110880       0.18746000
   179  C          0.05683000       0.49889120       0.31254000
   180  C          0.94317000       0.49889120       0.18746000
   181  C          0.44317000       0.00110880       0.68746000
   182  C          0.55683000       0.00110880       0.81254000
   183  C          0.94317000       0.50110880       0.68746000
   184  C          0.05683000       0.50110880       0.81254000
   185  C          0.55673000       0.92372120       0.31135000
   186  C          0.44327000       0.92372120       0.18865000
   187  C          0.05673000       0.42372120       0.31135000
   188  C          0.94327000       0.42372120       0.18865000
   189  C          0.44327000       0.07627880       0.68865000
   190  C          0.55673000       0.07627880       0.81135000
   191  C          0.94327000       0.57627880       0.68865000
   192  C          0.05673000       0.57627880       0.81135000
   193  C          0.55504000       0.84361140       0.31268000
   194  C          0.44496000       0.84361140       0.18732000
   195  C          0.05504000       0.34361140       0.31268000
   196  C          0.94496000       0.34361140       0.18732000
   197  C          0.44496000       0.15638860       0.68732000
   198  C          0.55504000       0.15638860       0.81268000
   199  C          0.94496000       0.65638860       0.68732000
   200  C          0.05504000       0.65638860       0.81268000
   201  H          0.59004000       0.81692140       0.35538000
   202  H          0.40996000       0.81692140       0.14462000
   203  H          0.09004000       0.31692140       0.35538000
   204  H          0.90996000       0.31692140       0.14462000
   205  H          0.40996000       0.18307860       0.64462000
   206  H          0.59004000       0.18307860       0.85538000
   207  H          0.90996000       0.68307860       0.64462000
   208  H          0.09004000       0.68307860       0.85538000
   209  C          0.55604000       0.07869130       0.31196000
   210  C          0.44396000       0.07869130       0.18804000
   211  C          0.05604000       0.57869130       0.31196000
   212  C          0.94396000       0.57869130       0.18804000
   213  C          0.44396000       0.92130870       0.68804000
   214  C          0.55604000       0.92130870       0.81196000
   215  C          0.94396000       0.42130870       0.68804000
   216  C          0.05604000       0.42130870       0.81196000
   217  H          0.59224000       0.10541130       0.35136000
   218  H          0.40776000       0.10541130       0.14864000
   219  H          0.09224000       0.60541130       0.35136000
   220  H          0.90776000       0.60541130       0.14864000
   221  H          0.40776000       0.89458870       0.64864000
   222  H          0.59224000       0.89458870       0.85136000
   223  H          0.90776000       0.39458870       0.64864000
   224  H          0.09224000       0.39458870       0.85136000
