data_AGEZAO
_symmetry_space_group_name_H-M    'P1'
_symmetry_Int_Tables_number       1
loop_
_symmetry_equiv_pos_site_id
_symmetry_equiv_pos_as_xyz
1 x,y,z
_cell_length_a                   9.530811
_cell_length_b                   18.1822
_cell_length_c                   14.075416
_cell_angle_alpha                90.0
_cell_angle_beta                 93.7032
_cell_angle_gamma                90.0
loop_
_atom_site_label
_atom_site_type_symbol
_atom_site_fract_x
_atom_site_fract_y
_atom_site_fract_z
     1  S          0.62610700       0.20503400       0.21797500
     2  S          0.87389300       0.70503400       0.28202500
     3  S          0.37389300       0.79496600       0.78202500
     4  S          0.12610700       0.29496600       0.71797500
     5  P          0.82863600       0.19400400       0.20990500
     6  P          0.67136400       0.69400400       0.29009500
     7  P          0.17136400       0.80599600       0.79009500
     8  P          0.32863600       0.30599600       0.70990500
     9  O          0.90363190       0.26373100       0.17312140
    10  O          0.59636810       0.76373100       0.32687860
    11  O          0.09636810       0.73626900       0.82687860
    12  O          0.40363190       0.23626900       0.67312140
    13  O          0.90982000       0.18110120       0.30871140
    14  O          0.59018000       0.68110120       0.19128860
    15  O          0.09018000       0.81889880       0.69128860
    16  O          0.40982000       0.31889880       0.80871140
    17  C          0.88092000       0.11614140       0.13128180
    18  C          0.61908000       0.61614140       0.36871820
    19  C          0.11908000       0.88385860       0.86871820
    20  C          0.38092000       0.38385860       0.63128180
    21  C          0.86073000       0.14392140       0.02740190
    22  C          0.63927000       0.64392140       0.47259810
    23  C          0.13927000       0.85607860       0.97259810
    24  C          0.36073000       0.35607860       0.52740190
    25  C          0.73024000       0.16943160      -0.00932000
    26  C          0.76976000       0.66943160       0.50932000
    27  C          0.26976000       0.83056840       0.00932000
    28  C          0.23024000       0.33056840       0.49068000
    29  H          0.65280000       0.16760000       0.02880000
    30  H          0.84720000       0.66760000       0.47120000
    31  H          0.34720000       0.83240000       0.97120000
    32  H          0.15280000       0.33240000       0.52880000
    33  C          0.71235000       0.19769170       0.89837000
    34  C          0.78765000       0.69769170       0.60163000
    35  C          0.28765000       0.80230830       0.10163000
    36  C          0.21235000       0.30230830       0.39837000
    37  H          0.62460000       0.21620000       0.87530000
    38  H          0.87540000       0.71620000       0.62470000
    39  H          0.37540000       0.78380000       0.12470000
    40  H          0.12460000       0.28380000       0.37530000
    41  C          0.82536000       0.19822000       0.84147000
    42  C          0.67464000       0.69822000       0.65853000
    43  C          0.17464000       0.80178000       0.15853000
    44  C          0.32536000       0.30178000       0.34147000
    45  H          0.81440000       0.21740000       0.77950000
    46  H          0.68560000       0.71740000       0.72050000
    47  H          0.18560000       0.78260000       0.22050000
    48  H          0.31440000       0.28260000       0.27950000
    49  C          0.95165000       0.17102000       0.87467000
    50  C          0.54835000       0.67102000       0.62533000
    51  C          0.04835000       0.82898000       0.12533000
    52  C          0.45165000       0.32898000       0.37467000
    53  H          0.02690000       0.17020000       0.83480000
    54  H          0.47310000       0.67020000       0.66520000
    55  H          0.97310000       0.82980000       0.16520000
    56  H          0.52690000       0.32980000       0.33480000
    57  C          0.97054000       0.14437170       0.96688000
    58  C          0.52946000       0.64437170       0.53312000
    59  C          0.02946000       0.85562830       0.03312000
    60  C          0.47054000       0.35562830       0.46688000
    61  H          0.05910000       0.12630000       0.98890000
    62  H          0.44090000       0.62630000       0.51110000
    63  H          0.94090000       0.87370000       0.01110000
    64  H          0.55910000       0.37370000       0.48890000
    65  C          0.03713000       0.09701150       0.15652190
    66  C          0.46287000       0.59701150       0.34347810
    67  C          0.96287000       0.90298850       0.84347810
    68  C          0.53713000       0.40298850       0.65652190
    69  C          0.13963000       0.15146180       0.16173000
    70  C          0.36037000       0.65146180       0.33827000
    71  C          0.86037000       0.84853820       0.83827000
    72  C          0.63963000       0.34853820       0.66173000
    73  H          0.11270000       0.20100000       0.15470000
    74  H          0.38730000       0.70100000       0.34530000
    75  H          0.88730000       0.79900000       0.84530000
    76  H          0.61270000       0.29900000       0.65470000
    77  C          0.28103000       0.13392000       0.17703000
    78  C          0.21897000       0.63392000       0.32297000
    79  C          0.71897000       0.86608000       0.82297000
    80  C          0.78103000       0.36608000       0.67703000
    81  H          0.34860000       0.17170000       0.17920000
    82  H          0.15140000       0.67170000       0.32080000
    83  H          0.65140000       0.82830000       0.82080000
    84  H          0.84860000       0.32830000       0.67920000
    85  C          0.32363000       0.06232000       0.18922000
    86  C          0.17637000       0.56232000       0.31078000
    87  C          0.67637000       0.93768000       0.81078000
    88  C          0.82363000       0.43768000       0.68922000
    89  H          0.41940000       0.05070000       0.20000000
    90  H          0.08060000       0.55070000       0.30000000
    91  H          0.58060000       0.94930000       0.80000000
    92  H          0.91940000       0.44930000       0.70000000
    93  C          0.22393000       0.00794180       0.18512000
    94  C          0.27607000       0.50794180       0.31488000
    95  C          0.77607000       0.99205820       0.81488000
    96  C          0.72393000       0.49205820       0.68512000
    97  H          0.25140000       0.95860000       0.19340000
    98  H          0.24860000       0.45860000       0.30660000
    99  H          0.74860000       0.04140000       0.80660000
   100  H          0.75140000       0.54140000       0.69340000
   101  C          0.08233000       0.02525160       0.16872000
   102  C          0.41767000       0.52525160       0.33128000
   103  C          0.91767000       0.97474840       0.83128000
   104  C          0.58233000       0.47474840       0.66872000
   105  H          0.01550000       0.98710000       0.16570000
   106  H          0.48450000       0.48710000       0.33430000
   107  H         -0.01550000       0.01290000       0.83430000
   108  H          0.51550000       0.51290000       0.66570000
   109  C          0.78683000       0.04901140       0.14805190
   110  C          0.71317000       0.54901140       0.35194810
   111  C          0.21317000       0.95098860       0.85194810
   112  C          0.28683000       0.45098860       0.64805190
   113  C          0.72523000       0.00864150       0.07262000
   114  C          0.77477000       0.50864150       0.42738000
   115  C          0.27477000       0.99135850       0.92738000
   116  C          0.22523000       0.49135850       0.57262000
   117  H          0.73710000       0.02370000       0.00970000
   118  H          0.76290000       0.52370000       0.49030000
   119  H          0.26290000       0.97630000      -0.00970000
   120  H          0.23710000       0.47630000       0.50970000
   121  C          0.64553000       0.94580830       0.08913000
   122  C          0.85447000       0.44580830       0.41087000
   123  C          0.35447000       0.05419170       0.91087000
   124  C          0.14553000       0.55419170       0.58913000
   125  H          0.60340000       0.91940000       0.03740000
   126  H          0.89660000       0.41940000       0.46260000
   127  H          0.39660000       0.08060000       0.96260000
   128  H          0.10340000       0.58060000       0.53740000
   129  C          0.62833000       0.92245820       0.18043000
   130  C          0.87167000       0.42245820       0.31957000
   131  C          0.37167000       0.07754180       0.81957000
   132  C          0.12833000       0.57754180       0.68043000
   133  H          0.57460000       0.88030000       0.19130000
   134  H          0.92540000       0.38030000       0.30870000
   135  H          0.42540000       0.11970000       0.80870000
   136  H          0.07460000       0.61970000       0.69130000
   137  C          0.69053000       0.96130820       0.25613000
   138  C          0.80947000       0.46130820       0.24387000
   139  C          0.30947000       0.03869180       0.74387000
   140  C          0.19053000       0.53869180       0.75613000
   141  H          0.67990000       0.94530000       0.31870000
   142  H          0.82010000       0.44530000       0.18130000
   143  H          0.32010000       0.05470000       0.68130000
   144  H          0.17990000       0.55470000       0.81870000
   145  C          0.76863000       0.02396170       0.24022000
   146  C          0.73137000       0.52396170       0.25978000
   147  C          0.23137000       0.97603830       0.75978000
   148  C          0.26863000       0.47603830       0.74022000
   149  H          0.81000000       0.05010000       0.29240000
   150  H          0.69000000       0.55010000       0.20760000
   151  H          0.19000000       0.94990000       0.70760000
   152  H          0.31000000       0.44990000       0.79240000
   153  H          0.86240000       0.28941900       0.12820000
   154  H          0.63760000       0.78941900       0.37180000
   155  H          0.13760000       0.71058100       0.87180000
   156  H          0.36240000       0.21058100       0.62820000
   157  H          0.87240000       0.17020000       0.35720000
   158  H          0.62760000       0.67020000       0.14280000
   159  H          0.12760000       0.82980000       0.64280000
   160  H          0.37240000       0.32980000       0.85720000
   161  O          0.30122000       0.36413140       0.96236850
   162  O          0.19878000       0.86413140       0.53763150
   163  O          0.69878000       0.63586860       0.03763150
   164  O          0.80122000       0.13586860       0.46236850
   165  C          0.16684000       0.38442000       0.09682000
   166  C          0.33316000       0.88442000       0.40318000
   167  C          0.83316000       0.61558000       0.90318000
   168  C          0.66684000       0.11558000       0.59682000
   169  H          0.25920000       0.39170000       0.12840000
   170  H          0.24080000       0.89170000       0.37160000
   171  H          0.74080000       0.60830000       0.87160000
   172  H          0.75920000       0.10830000       0.62840000
   173  H          0.11990000       0.34410000       0.12680000
   174  H          0.38010000       0.84410000       0.37320000
   175  H          0.88010000       0.65590000       0.87320000
   176  H          0.61990000       0.15590000       0.62680000
   177  H          0.11170000       0.42900000       0.10160000
   178  H          0.38830000       0.92900000       0.39840000
   179  H          0.88830000       0.57100000       0.89840000
   180  H          0.61170000       0.07100000       0.60160000
   181  C          0.18173000       0.36669170      -0.00592000
   182  C          0.31827000       0.86669170       0.50592000
   183  C          0.81827000       0.63330830       0.00592000
   184  C          0.68173000       0.13330830       0.49408000
   185  C          0.06723000       0.35499190       0.94034810
   186  C          0.43277000       0.85499190       0.55965190
   187  C          0.93277000       0.64500810       0.05965190
   188  C          0.56723000       0.14500810       0.44034810
   189  H          0.09160000       0.34440000       0.87590000
   190  H          0.40840000       0.84440000       0.62410000
   191  H          0.90840000       0.65560000       0.12410000
   192  H          0.59160000       0.15560000       0.37590000
   193  H          0.00800000       0.39840000       0.94020000
   194  H          0.49200000       0.89840000       0.55980000
   195  H         -0.00800000       0.60160000       0.05980000
   196  H          0.50800000       0.10160000       0.44020000
   197  H          0.01700000       0.31350000       0.96500000
   198  H          0.48300000       0.81350000       0.53500000
   199  H          0.98300000       0.68650000       0.03500000
   200  H          0.51700000       0.18650000       0.46500000
   201  O          0.30942000       0.14959110       0.54117140
   202  O          0.19058000       0.64959110       0.95882860
   203  O          0.69058000       0.85040890       0.45882860
   204  O          0.80942000       0.35040890       0.04117140
   205  C          0.07673000       0.15662160       0.55617190
   206  C          0.42327000       0.65662160       0.94382810
   207  C          0.92327000       0.84337840       0.44382810
   208  C          0.57673000       0.34337840       0.05617190
   209  H          0.10740000       0.19100000       0.60590000
   210  H          0.39260000       0.69100000       0.89410000
   211  H          0.89260000       0.80900000       0.39410000
   212  H          0.60740000       0.30900000       0.10590000
   213  H          0.02770000       0.11590000       0.58380000
   214  H          0.47230000       0.61590000       0.91620000
   215  H          0.97230000       0.88410000       0.41620000
   216  H          0.52770000       0.38410000       0.08380000
   217  H          0.01390000       0.18140000       0.50960000
   218  H          0.48610000       0.68140000      -0.00960000
   219  H         -0.01390000       0.81860000       0.49040000
   220  H          0.51390000       0.31860000       0.00960000
   221  C          0.18663000       0.13161160       0.51452000
   222  C          0.31337000       0.63161160       0.98548000
   223  C          0.81337000       0.86838840       0.48548000
   224  C          0.68663000       0.36838840       0.01452000
   225  C          0.16094000       0.07922000       0.43393000
   226  C          0.33906000       0.57922000       0.06607000
   227  C          0.83906000       0.92078000       0.56607000
   228  C          0.66094000       0.42078000       0.93393000
   229  H          0.24990000       0.06530000       0.40930000
   230  H          0.25010000       0.56530000       0.09070000
   231  H          0.75010000       0.93470000       0.59070000
   232  H          0.74990000       0.43470000       0.90930000
   233  H          0.10180000       0.10240000       0.38390000
   234  H          0.39820000       0.60240000       0.11610000
   235  H          0.89820000       0.89760000       0.61610000
   236  H          0.60180000       0.39760000       0.88390000
   237  H          0.11410000       0.03570000       0.45620000
   238  H          0.38590000       0.53570000       0.04380000
   239  H          0.88590000       0.96430000       0.54380000
   240  H          0.61410000       0.46430000       0.95620000
