data_AGIJIM
_symmetry_space_group_name_H-M    'P1'
_symmetry_Int_Tables_number       1
loop_
_symmetry_equiv_pos_site_id
_symmetry_equiv_pos_as_xyz
1 x,y,z
_cell_length_a                   9.3713
_cell_length_b                   9.6845
_cell_length_c                   10.5987
_cell_angle_alpha                81.384
_cell_angle_beta                 78.59916
_cell_angle_gamma                83.36918
loop_
_atom_site_label
_atom_site_type_symbol
_atom_site_fract_x
_atom_site_fract_y
_atom_site_fract_z
     1  O          0.23487120       0.76011110       0.38126100
     2  O          0.76512880       0.23988890       0.61873900
     3  N          0.26918130       0.38181130       0.61226120
     4  N          0.73081870       0.61818870       0.38773880
     5  B          0.12342190       0.66981190       0.38442170
     6  B          0.87657810       0.33018810       0.61557830
     7  C          0.24316170       0.84958160       0.26719150
     8  C          0.75683830       0.15041840       0.73280850
     9  C          0.14071160       0.82003160       0.19920150
    10  C          0.85928840       0.17996840       0.80079850
    11  O          0.06486110       0.71186110       0.26861100
    12  O          0.93513890       0.28813890       0.73138900
    13  N          0.16532140       0.55542140       0.71114120
    14  N          0.83467860       0.44457860       0.28885880
    15  B          0.07136190       0.53926190       0.49624180
    16  B          0.92863810       0.46073810       0.50375820
    17  C          0.12795170       0.89058170       0.07890150
    18  C          0.87204830       0.10941830       0.92109850
    19  H          0.05770800       0.86968800       0.03265200
    20  H          0.94229200       0.13031200       0.96734800
    21  C          0.22279180      -0.00574830       0.02777170
    22  C          0.77720820       0.00574830       0.97222830
    23  H          0.21749800       0.04505100       0.94463200
    24  H          0.78250200       0.95494900       0.05536800
    25  C          0.33641180       0.95232170       0.21791170
    26  C          0.66358820       0.04767830       0.78208830
    27  H          0.40589700       0.97320300       0.26495000
    28  H          0.59410300       0.02679700       0.73505000
    29  C          0.32439190       0.02448170       0.09581170
    30  C          0.67560810       0.97551830       0.90418830
    31  H          0.38733500       0.09591600       0.05859500
    32  H          0.61266500       0.90408400       0.94140500
    33  C          0.32797170       0.37446170       0.72347150
    34  C          0.67202830       0.62553830       0.27652850
    35  H          0.40051900       0.30591200       0.75074600
    36  H          0.59948100       0.69408800       0.24925400
    37  C          0.16840160       0.49297160       0.60424140
    38  C          0.83159840       0.50702840       0.39575860
    39  C          0.26281170       0.48270180       0.78524160
    40  C          0.73718830       0.51729820       0.21475840
    41  H          0.28026800       0.50518000       0.86477100
    42  H          0.71973200       0.49482000       0.13522900
    43  C          0.31059170       0.28330170       0.51520160
    44  C          0.68940830       0.71669830       0.48479840
    45  H          0.24764400       0.31134200       0.44800400
    46  H          0.75235600       0.68865800       0.55199600
    47  C          0.46798190       0.29412000       0.44794170
    48  C          0.53201810       0.70588000       0.55205830
    49  H          0.48056200       0.39047900       0.40635900
    50  H          0.51943800       0.60952100       0.59364100
    51  H          0.49299200       0.23003800       0.38199600
    52  H          0.50700800       0.76996200       0.61800400
    53  H          0.53224800       0.26887500       0.51194100
    54  H          0.46775200       0.73112500       0.48805900
    55  C          0.28052000       0.13562190       0.57732000
    56  C          0.71948000       0.86437810       0.42268000
    57  H          0.30073300       0.07272800       0.51036300
    58  H          0.69926700       0.92727200       0.48963700
    59  H          0.17779600       0.13460500       0.62020200
    60  H          0.82220400       0.86539500       0.37979800
    61  H          0.34341500       0.10400900       0.64161300
    62  H          0.65658500       0.89599100       0.35838700
    63  C          0.06685190       0.67999180       0.74362170
    64  C          0.93314810       0.32000820       0.25637830
    65  H          0.00330600       0.70368300       0.67652100
    66  H         -0.00330600       0.29631700       0.32347900
    67  C          0.96808000       0.64792000       0.87422000
    68  C          0.03192000       0.35208000       0.12578000
    69  H          0.89588200       0.72800700       0.88992900
    70  H          0.10411800       0.27199300       0.11007100
    71  H          0.02698300       0.63042000       0.94274500
    72  H          0.97301700       0.36958000       0.05725500
    73  H          0.91775100       0.56468800       0.87433500
    74  H          0.08224900       0.43531200       0.12566500
    75  C          0.15312000       0.80414190       0.73764190
    76  C          0.84688000       0.19585810       0.26235810
    77  H          0.21160600       0.82318800       0.65043400
    78  H          0.78839400       0.17681200       0.34956600
    79  H          0.21800900       0.78313800       0.80141700
    80  H          0.78199100       0.21686200       0.19858300
    81  H          0.08577200       0.88657300       0.75718600
    82  H          0.91422800       0.11342700       0.24281400
    83  C          0.39096170       0.53120180       0.10316170
    84  C          0.60903830       0.46879820       0.89683830
    85  H          0.31607500       0.55245800       0.17394300
    86  H          0.68392500       0.44754200       0.82605700
    87  C          0.43798170       0.39319180       0.08787160
    88  C          0.56201830       0.60680820       0.91212840
    89  H          0.39549200       0.31970700       0.14824500
    90  H          0.60450800       0.68029300       0.85175500
    91  C          0.54737170       0.36159180       0.98429840
    92  C          0.45262830       0.63840820       0.01570160
    93  H          0.57959900       0.26665700       0.97369400
    94  H          0.42040100       0.73334300       0.02630600
