data_AHAJID
_symmetry_space_group_name_H-M    'P1'
_symmetry_Int_Tables_number       1
loop_
_symmetry_equiv_pos_site_id
_symmetry_equiv_pos_as_xyz
1 x,y,z
_cell_length_a                   8.05104
_cell_length_b                   21.198512
_cell_length_c                   13.25345
_cell_angle_alpha                90.0
_cell_angle_beta                 100.8722
_cell_angle_gamma                90.0
loop_
_atom_site_label
_atom_site_type_symbol
_atom_site_fract_x
_atom_site_fract_y
_atom_site_fract_z
     1  C          0.29403000       0.93177880       0.51612000
     2  C          0.20597000       0.43177880       0.98388000
     3  C          0.70597000       0.06822120       0.48388000
     4  C          0.79403000       0.56822120       0.01612000
     5  I          0.34531200       0.83599320       0.54913314
     6  I          0.15468800       0.33599320       0.95086686
     7  I          0.65468800       0.16400680       0.45086686
     8  I          0.84531200       0.66400680       0.04913314
     9  C          0.25523000       0.97272870       0.58972000
    10  C          0.24477000       0.47272870       0.91028000
    11  C          0.74477000       0.02727130       0.41028000
    12  C          0.75523000       0.52727130       0.08972000
    13  F          0.25482000       0.94988300       0.68495120
    14  F          0.24518000       0.44988300       0.81504880
    15  F          0.74518000       0.05011700       0.31504880
    16  F          0.75482000       0.55011700       0.18495120
    17  I          0.16206200       0.09542380       0.68777914
    18  I          0.33793800       0.59542380       0.81222086
    19  I          0.83793800       0.90457620       0.31222086
    20  I          0.66206200       0.40457620       0.18777914
    21  C          0.21463000       0.03572120       0.57052000
    22  C          0.28537000       0.53572120       0.92948000
    23  C          0.78537000       0.96427880       0.42948000
    24  C          0.71463000       0.46427880       0.07052000
    25  C          0.21163000       0.05741120       0.47162000
    26  C          0.28837000       0.55741120       0.02838000
    27  C          0.78837000       0.94258880       0.52838000
    28  C          0.71163000       0.44258880       0.97162000
    29  F          0.16864190       0.11822700       0.44902120
    30  F          0.33135810       0.61822700       0.05097880
    31  F          0.83135810       0.88177300       0.55097880
    32  F          0.66864190       0.38177300       0.94902120
    33  I          0.23333200       0.05223380       0.24268314
    34  I          0.26666800       0.55223380       0.25731686
    35  I          0.76666800       0.94776620       0.75731686
    36  I          0.73333200       0.44776620       0.74268314
    37  C          0.24953000       0.01911120       0.39332000
    38  C          0.25047000       0.51911120       0.10668000
    39  C          0.75047000       0.98088880       0.60668000
    40  C          0.74953000       0.48088880       0.89332000
    41  C          0.29183000       0.95651880       0.41912000
    42  C          0.20817000       0.45651880       0.08088000
    43  C          0.70817000       0.04348120       0.58088000
    44  C          0.79183000       0.54348120       0.91912000
    45  F          0.33022000       0.91822300       0.34557120
    46  F          0.16978000       0.41822300       0.15442880
    47  F          0.66978000       0.08177700       0.65442880
    48  F          0.83022000       0.58177700       0.84557120
    49  S          0.89847200       0.81073700       0.12914500
    50  S          0.60152800       0.31073700       0.37085500
    51  S          0.10152800       0.18926300       0.87085500
    52  S          0.39847200       0.68926300       0.62914500
    53  C          0.84557000       0.86138870       0.03332000
    54  C          0.65443000       0.36138870       0.46668000
    55  C          0.15443000       0.13861130       0.96668000
    56  C          0.34557000       0.63861130       0.53332000
    57  N          0.80697000       0.89673890       0.96588000
    58  N          0.69303000       0.39673890       0.53412000
    59  N          0.19303000       0.10326110       0.03412000
    60  N          0.30697000       0.60326110       0.46588000
    61  N          0.32003000       0.83801900       0.94008830
    62  N          0.17997000       0.33801900       0.55991170
    63  N          0.67997000       0.16198100       0.05991170
    64  N          0.82003000       0.66198100       0.44008830
    65  C          0.43984000       0.84035840       0.04352000
    66  C          0.06016000       0.34035840       0.45648000
    67  C          0.56016000       0.15964160       0.95648000
    68  C          0.93984000       0.65964160       0.54352000
    69  H          0.50420000       0.80030000       0.05300000
    70  H         -0.00420000       0.30030000       0.44700000
    71  H          0.49580000       0.19970000       0.94700000
    72  H          0.00420000       0.69970000       0.55300000
    73  H          0.52210000       0.87480000       0.04150000
    74  H          0.97790000       0.37480000       0.45850000
    75  H          0.47790000       0.12520000       0.95850000
    76  H          0.02210000       0.62520000       0.54150000
    77  C          0.35854000       0.85030810       0.13623000
    78  C          0.14146000       0.35030810       0.36377000
    79  C          0.64146000       0.14969190       0.86377000
    80  C          0.85854000       0.64969190       0.63623000
    81  H          0.29490000       0.89000000       0.12850000
    82  H          0.20510000       0.39000000       0.37150000
    83  H          0.70510000       0.11000000       0.87150000
    84  H          0.79490000       0.61000000       0.62850000
    85  H          0.44630000       0.85210000       0.19830000
    86  H          0.05370000       0.35210000       0.30170000
    87  H          0.55370000       0.14790000       0.80170000
    88  H          0.94630000       0.64790000       0.69830000
    89  H          0.28140000       0.81520000       0.14180000
    90  H          0.21860000       0.31520000       0.35820000
    91  H          0.71860000       0.18480000       0.85820000
    92  H          0.78140000       0.68480000       0.64180000
    93  C          0.20964000       0.89645860       0.92327000
    94  C          0.29036000       0.39645860       0.57673000
    95  C          0.79036000       0.10354140       0.07673000
    96  C          0.70964000       0.60354140       0.42327000
    97  H          0.12850000       0.89460000       0.97080000
    98  H          0.37150000       0.39460000       0.52920000
    99  H          0.87150000       0.10540000       0.02920000
   100  H          0.62850000       0.60540000       0.47080000
   101  H          0.14310000       0.89520000       0.85250000
   102  H          0.35690000       0.39520000       0.64750000
   103  H          0.85690000       0.10480000       0.14750000
   104  H          0.64310000       0.60480000       0.35250000
   105  C          0.30154000       0.95942860       0.93857000
   106  C          0.19846000       0.45942860       0.56143000
   107  C          0.69846000       0.04057140       0.06143000
   108  C          0.80154000       0.54057140       0.43857000
   109  H          0.36190000       0.96280000       0.00990000
   110  H          0.13810000       0.46280000       0.49010000
   111  H          0.63810000       0.03720000      -0.00990000
   112  H          0.86190000       0.53720000       0.50990000
   113  H          0.21930000      -0.00620000       0.92370000
   114  H          0.28070000       0.49380000       0.57630000
   115  H          0.78070000       0.00620000       0.07630000
   116  H          0.71930000       0.50620000       0.42370000
   117  H          0.38250000       0.96220000       0.89220000
   118  H          0.11750000       0.46220000       0.60780000
   119  H          0.61750000       0.03780000       0.10780000
   120  H          0.88250000       0.53780000       0.39220000
   121  C          0.20644000       0.78005860       0.93718000
   122  C          0.29356000       0.28005860       0.56282000
   123  C          0.79356000       0.21994140       0.06282000
   124  C          0.70644000       0.71994140       0.43718000
   125  H          0.27930000       0.74240000       0.95370000
   126  H          0.22070000       0.24240000       0.54630000
   127  H          0.72070000       0.25760000       0.04630000
   128  H          0.77930000       0.75760000       0.45370000
   129  H          0.13890000       0.78450000      -0.00800000
   130  H          0.36110000       0.28450000       0.50800000
   131  H          0.86110000       0.21550000       0.00800000
   132  H          0.63890000       0.71550000       0.49200000
   133  C          0.08694000       0.76825850       0.83697000
   134  C          0.41306000       0.26825850       0.66303000
   135  C          0.91306000       0.23174150       0.16303000
   136  C          0.58694000       0.73174150       0.33697000
   137  H          0.01300000       0.80500000       0.81970000
   138  H          0.48700000       0.30500000       0.68030000
   139  H         -0.01300000       0.19500000       0.18030000
   140  H          0.51300000       0.69500000       0.31970000
   141  H          0.01800000       0.73090000       0.84370000
   142  H          0.48200000       0.23090000       0.65630000
   143  H         -0.01800000       0.26910000       0.15630000
   144  H          0.51800000       0.76910000       0.34370000
   145  H          0.15200000       0.76120000       0.78260000
   146  H          0.34800000       0.26120000       0.71740000
   147  H          0.84800000       0.23880000       0.21740000
   148  H          0.65200000       0.73880000       0.28260000
   149  C          0.42333000       0.83533860       0.85558000
   150  C          0.07667000       0.33533860       0.64442000
   151  C          0.57667000       0.16466140       0.14442000
   152  C          0.92333000       0.66466140       0.35558000
   153  H          0.34450000       0.83760000       0.78860000
   154  H          0.15550000       0.33760000       0.71140000
   155  H          0.65550000       0.16240000       0.21140000
   156  H          0.84450000       0.66240000       0.28860000
   157  H          0.49600000       0.87330000       0.86120000
   158  H          0.00400000       0.37330000       0.63880000
   159  H          0.50400000       0.12670000       0.13880000
   160  H         -0.00400000       0.62670000       0.36120000
   161  C          0.53443000       0.77797860       0.85478000
   162  C          0.96557000       0.27797860       0.64522000
   163  C          0.46557000       0.22202140       0.14522000
   164  C          0.03443000       0.72202140       0.35478000
   165  H          0.61500000       0.77540000       0.92010000
   166  H          0.88500000       0.27540000       0.57990000
   167  H          0.38500000       0.22460000       0.07990000
   168  H          0.11500000       0.72460000       0.42010000
   169  H          0.59640000       0.78140000       0.79810000
   170  H          0.90360000       0.28140000       0.70190000
   171  H          0.40360000       0.21860000       0.20190000
   172  H          0.09640000       0.71860000       0.29810000
   173  H          0.46400000       0.73990000       0.84580000
   174  H          0.03600000       0.23990000       0.65420000
   175  H          0.53600000       0.26010000       0.15420000
   176  H          0.96400000       0.76010000       0.34580000
