data_AHELOQ
_symmetry_space_group_name_H-M    'P1'
_symmetry_Int_Tables_number       1
loop_
_symmetry_equiv_pos_site_id
_symmetry_equiv_pos_as_xyz
1 x,y,z
_cell_length_a                   10.1222
_cell_length_b                   9.6552
_cell_length_c                   12.6723
_cell_angle_alpha                90.0
_cell_angle_beta                 91.003
_cell_angle_gamma                90.0
loop_
_atom_site_label
_atom_site_type_symbol
_atom_site_fract_x
_atom_site_fract_y
_atom_site_fract_z
     1  P          0.62693000       0.25000000       0.80432000
     2  P          0.37307000       0.75000000       0.19568000
     3  I          0.75362500       0.04880500       0.85759500
     4  I          0.24637500       0.54880500       0.14240500
     5  I          0.24637500       0.95119500       0.14240500
     6  I          0.75362500       0.45119500       0.85759500
     7  C          0.46861200       0.25000000       0.88119000
     8  C          0.53138800       0.75000000       0.11881000
     9  C          0.50921300       0.25000000      -0.00369000
    10  C          0.49078700       0.75000000       0.00369000
    11  H          0.43240000       0.25000000       0.04140000
    12  H          0.56760000       0.75000000       0.95860000
    13  H          0.56220000       0.16825000       0.01130000
    14  H          0.43780000       0.66825000       0.98870000
    15  H          0.43780000       0.83175000       0.98870000
    16  H          0.56220000       0.33175000       0.01130000
    17  C          0.39011100       0.11951200       0.85449000
    18  C          0.60988900       0.61951200       0.14551000
    19  C          0.60988900       0.88048800       0.14551000
    20  C          0.39011100       0.38048800       0.85449000
    21  H          0.36470000       0.12060000       0.78020000
    22  H          0.63530000       0.62060000       0.21980000
    23  H          0.63530000       0.87940000       0.21980000
    24  H          0.36470000       0.37940000       0.78020000
    25  H          0.31140000       0.11620000       0.89690000
    26  H          0.68860000       0.61620000       0.10310000
    27  H          0.68860000       0.88380000       0.10310000
    28  H          0.31140000       0.38380000       0.89690000
    29  H          0.44410000       0.03850000       0.86900000
    30  H          0.55590000       0.53850000       0.13100000
    31  H          0.55590000       0.96150000       0.13100000
    32  H          0.44410000       0.46150000       0.86900000
    33  C          0.61511200       0.25000000       0.65221000
    34  C          0.38488800       0.75000000       0.34779000
    35  C          0.75141500       0.25000000       0.61351100
    36  C          0.24858500       0.75000000       0.38648900
    37  H          0.75270000       0.25000000       0.53681400
    38  H          0.24730000       0.75000000       0.46318600
    39  H          0.79830000       0.16825000       0.63930000
    40  H          0.20170000       0.66825000       0.36070000
    41  H          0.20170000       0.83175000       0.36070000
    42  H          0.79830000       0.33175000       0.63930000
    43  C          0.54011100       0.11941000       0.61798000
    44  C          0.45988900       0.61941000       0.38202000
    45  C          0.45988900       0.88059000       0.38202000
    46  C          0.54011100       0.38059000       0.61798000
    47  H          0.45090000       0.12290000       0.64450000
    48  H          0.54910000       0.62290000       0.35550000
    49  H          0.54910000       0.87710000       0.35550000
    50  H          0.45090000       0.37710000       0.64450000
    51  H          0.58500000       0.03840000       0.64600000
    52  H          0.41500000       0.53840000       0.35400000
    53  H          0.41500000       0.96160000       0.35400000
    54  H          0.58500000       0.46160000       0.64600000
    55  H          0.53690000       0.11430000       0.54150000
    56  H          0.46310000       0.61430000       0.45850000
    57  H          0.46310000       0.88570000       0.45850000
    58  H          0.53690000       0.38570000       0.54150000
    59  P          0.05533000       0.25000000       0.51223000
    60  P          0.94467000       0.75000000       0.48777000
    61  I          0.11074600       0.05369600       0.62949600
    62  I          0.88925400       0.55369600       0.37050400
    63  I          0.88925400       0.94630400       0.37050400
    64  I          0.11074600       0.44630400       0.62949600
    65  I          0.23974100       0.25000000       0.38958900
    66  I          0.76025900       0.75000000       0.61041100
    67  I          0.59892900       0.25000000       0.29735700
    68  I          0.40107100       0.75000000       0.70264300
    69  I          0.83785700       0.25000000       0.17758600
    70  I          0.16214300       0.75000000       0.82241400
    71  I          0.07944800       0.25000000       0.04948800
    72  I          0.92055200       0.75000000       0.95051200
