data_AHEVIT
_symmetry_space_group_name_H-M    'P1'
_symmetry_Int_Tables_number       1
loop_
_symmetry_equiv_pos_site_id
_symmetry_equiv_pos_as_xyz
1 x,y,z
_cell_length_a                   5.231401
_cell_length_b                   6.108501
_cell_length_c                   15.32393
_cell_angle_alpha                100.20901
_cell_angle_beta                 96.18501
_cell_angle_gamma                99.37101
loop_
_atom_site_label
_atom_site_type_symbol
_atom_site_fract_x
_atom_site_fract_y
_atom_site_fract_z
     1  I          0.45635200       0.81089518       0.14192570
     2  I          0.54364800       0.18910482       0.85807430
     3  C          0.18444000       0.92333000       0.05664110
     4  C          0.81556000       0.07667000       0.94335890
     5  F          0.18243000       0.61953000       0.93672900
     6  F          0.81757000       0.38047000       0.06327100
     7  C          0.09364000       0.80733000       0.96986880
     8  C          0.90636000       0.19267000       0.03013120
     9  F          0.16143000       0.23573000       0.16984900
    10  F          0.83857000       0.76427000       0.83015100
    11  C          0.08674000       0.11823000       0.08557120
    12  C          0.91326000       0.88177000       0.91442880
    13  S          0.62326120       0.73868100       0.44830300
    14  S          0.37673880       0.26131900       0.55169700
    15  N          0.83933000       0.68803000       0.26254110
    16  N          0.16067000       0.31197000       0.73745890
    17  H          0.95910000       0.66580000       0.22660000
    18  H          0.04090000       0.33420000       0.77340000
    19  C          0.75564000       0.95784000       0.39163140
    20  C          0.24436000       0.04216000       0.60836860
    21  H          0.61110000      -0.00330000       0.35360000
    22  H          0.38890000       0.00330000       0.64640000
    23  H          0.83780000       0.09520000       0.43670000
    24  H          0.16220000       0.90480000       0.56330000
    25  C          0.95724000       0.88614000       0.33371140
    26  C          0.04276000       0.11386000       0.66628860
    27  H          0.02980000       0.01340000       0.30620000
    28  H         -0.02980000      -0.01340000       0.69380000
    29  H          0.10280000       0.84800000       0.37150000
    30  H          0.89720000       0.15200000       0.62850000
    31  C          0.75304000       0.48384000       0.29731140
    32  C          0.24696000       0.51616000       0.70268860
    33  H          0.90110000       0.45240000       0.33610000
    34  H          0.09890000       0.54760000       0.66390000
    35  H          0.69620000       0.35300000       0.24680000
    36  H          0.30380000       0.64700000       0.75320000
    37  C          0.52824000       0.51253000       0.35068140
    38  C          0.47176000       0.48747000       0.64931860
    39  H          0.46620000       0.36900000       0.37000000
    40  H          0.53380000       0.63100000       0.63000000
    41  H          0.38120000       0.54540000       0.31180000
    42  H          0.61880000       0.45460000       0.68820000
