data_AHEVOZ
_symmetry_space_group_name_H-M    'P1'
_symmetry_Int_Tables_number       1
loop_
_symmetry_equiv_pos_site_id
_symmetry_equiv_pos_as_xyz
1 x,y,z
_cell_length_a                   5.289201
_cell_length_b                   6.063901
_cell_length_c                   15.31133
_cell_angle_alpha                99.38201
_cell_angle_beta                 95.93001
_cell_angle_gamma                99.45401
loop_
_atom_site_label
_atom_site_type_symbol
_atom_site_fract_x
_atom_site_fract_y
_atom_site_fract_z
     1  I          0.45099119       0.30617018       0.14111170
     2  I          0.54900881       0.69382982       0.85888830
     3  F          0.15253000       0.72973000       0.16978100
     4  F          0.84747000       0.27027000       0.83021900
     5  F          0.81537000       0.87843000       0.06351110
     6  F          0.18463000       0.12157000       0.93648890
     7  C          0.08174000       0.61473000       0.08568130
     8  C          0.91826000       0.38527000       0.91431870
     9  C          0.18103000       0.42153000       0.05662130
    10  C          0.81897000       0.57847000       0.94337870
    11  C          0.90526000       0.69113000       0.03026130
    12  C          0.09474000       0.30887000       0.96973870
    13  N          0.82977000       0.17783000       0.25919130
    14  N          0.17023000       0.82217000       0.74080870
    15  C          0.94456000       0.37024000       0.33130170
    16  C          0.05544000       0.62976000       0.66869830
    17  H          0.00430000       0.50310000       0.30610000
    18  H         -0.00430000       0.49690000       0.69390000
    19  H          0.09220000       0.33350000       0.36530000
    20  H          0.90780000       0.66650000       0.63470000
    21  C          0.74096000       0.97134000       0.29375170
    22  C          0.25904000       0.02866000       0.70624830
    23  H          0.88530000       0.93030000       0.32800000
    24  H          0.11470000       0.06970000       0.67200000
    25  H          0.67190000       0.84670000       0.24440000
    26  H          0.32810000       0.15330000       0.75560000
    27  C          0.74365000       0.42184000       0.39273170
    28  C          0.25635000       0.57816000       0.60726830
    29  H          0.82270000       0.54360000       0.44200000
    30  H          0.17730000       0.45640000       0.55800000
    31  H          0.60400000       0.47230000       0.35980000
    32  H          0.39600000       0.52770000       0.64020000
    33  C          0.53315000       0.01154000       0.35280180
    34  C          0.46685000      -0.01154000       0.64719820
    35  H          0.47820000       0.87580000       0.37690000
    36  H          0.52180000       0.12420000       0.62310000
    37  H          0.38440000       0.04230000       0.31740000
    38  H          0.61560000       0.95770000       0.68260000
    39  C          0.63525000       0.21175000       0.42919170
    40  C          0.36475000       0.78825000       0.57080830
    41  H          0.49650000       0.24340000       0.46330000
    42  H          0.50350000       0.75660000       0.53670000
    43  H          0.77000000       0.17350000       0.46890000
    44  H          0.23000000       0.82650000       0.53110000
    45  H         -0.03260000       0.13710000       0.22500000
    46  H          0.03260000       0.86290000       0.77500000
