data_AHEWIT
_symmetry_space_group_name_H-M    'P1'
_symmetry_Int_Tables_number       1
loop_
_symmetry_equiv_pos_site_id
_symmetry_equiv_pos_as_xyz
1 x,y,z
_cell_length_a                   8.24772
_cell_length_b                   10.70533
_cell_length_c                   10.42333
_cell_angle_alpha                103.084811
_cell_angle_beta                 91.787115
_cell_angle_gamma                100.806311
loop_
_atom_site_label
_atom_site_type_symbol
_atom_site_fract_x
_atom_site_fract_y
_atom_site_fract_z
     1  I          0.27064500       0.46929300       0.64073400
     2  I          0.72935500       0.53070700       0.35926600
     3  I          0.37684400       0.23892300       0.47030300
     4  I          0.62315600       0.76107700       0.52969700
     5  I          0.49500400       0.02651400       0.30516400
     6  I          0.50499600       0.97348600       0.69483600
     7  I          0.42381500       0.18037400       0.06073400
     8  I          0.57618500       0.81962600       0.93926600
     9  I          0.35580400       0.31816400       0.87888400
    10  I          0.64419600       0.68183600       0.12111600
    11  Cl         0.05423180       0.75994140       0.81788130
    12  Cl         0.94576820       0.24005860       0.18211870
    13  N          0.08125000       0.83104000       0.11414000
    14  N          0.91875000       0.16896000       0.88586000
    15  H          0.08280000       0.82960000       0.03130000
    16  H          0.91720000       0.17040000       0.96870000
    17  C          0.02806000       0.93045000       0.19345000
    18  C          0.97194000       0.06955000       0.80655000
    19  H         -0.00600000      -0.00810000       0.15390000
    20  H          0.00600000       0.00810000       0.84610000
    21  N          0.01975000       0.94824000       0.32094000
    22  N         -0.01975000       0.05176000       0.67906000
    23  C          0.07365000       0.85284000       0.36695000
    24  C          0.92635000       0.14716000       0.63305000
    25  C          0.13005000       0.74844000       0.29404000
    26  C          0.86995000       0.25156000       0.70596000
    27  C          0.13295000       0.73224000       0.15625000
    28  C          0.86705000       0.26776000       0.84375000
    29  N          0.17695000       0.63694000       0.07184000
    30  N          0.82305000       0.36306000       0.92816000
    31  H          0.17350000       0.63600000      -0.01090000
    32  H          0.82650000       0.36400000       0.01090000
    33  H          0.20940000       0.57480000       0.09890000
    34  H          0.79060000       0.42520000       0.90110000
    35  N          0.17474000       0.67974000       0.38014000
    36  N          0.82526000       0.32026000       0.61986000
    37  H          0.21410000       0.60940000       0.35970000
    38  H          0.78590000       0.39060000       0.64030000
    39  C          0.14696000       0.74035000       0.50085000
    40  C          0.85304000       0.25965000       0.49915000
    41  H          0.16730000       0.71340000       0.57760000
    42  H          0.83270000       0.28660000       0.42240000
    43  N          0.08495000       0.84604000       0.49544000
    44  N          0.91505000       0.15396000       0.50456000
    45  H          0.05710000       0.90000000       0.56130000
    46  H          0.94290000       0.10000000       0.43870000
    47  O          0.26075000       0.46434000       0.24294000
    48  O          0.73925000       0.53566000       0.75706000
    49  H          0.16840000       0.39640000       0.22960000
    50  H          0.83160000       0.60360000       0.77040000
    51  H          0.35140000       0.43350000       0.27060000
    52  H          0.64860000       0.56650000       0.72940000
