data_AHIMEL
_symmetry_space_group_name_H-M    'P1'
_symmetry_Int_Tables_number       1
loop_
_symmetry_equiv_pos_site_id
_symmetry_equiv_pos_as_xyz
1 x,y,z
_cell_length_a                   11.87306
_cell_length_b                   5.22912
_cell_length_c                   15.34599
_cell_angle_alpha                90.0
_cell_angle_beta                 106.6024
_cell_angle_gamma                90.0
loop_
_atom_site_label
_atom_site_type_symbol
_atom_site_fract_x
_atom_site_fract_y
_atom_site_fract_z
     1  S          0.04538400       0.21024900       0.19770300
     2  S          0.95461600       0.71024900       0.80229700
     3  H          0.12141900       0.08050000       0.23021500
     4  H          0.87858100       0.58050000       0.76978500
     5  O          0.06232120       0.79613000       0.45929900
     6  O          0.93767880       0.29613000       0.54070100
     7  C          0.09375150       0.46693000       0.27949120
     8  C          0.90624850       0.96693000       0.72050880
     9  H          0.17421900       0.49140000       0.28871400
    10  H          0.82578100      -0.00860000       0.71128600
    11  H          0.05161800       0.60940000       0.25511400
    12  H          0.94838200       0.10940000       0.74488600
    13  O          0.23874100       0.65263000       0.45526900
    14  O          0.76125900       0.15263000       0.54473100
    15  C          0.12722140       0.64433000       0.43553100
    16  C          0.87277860       0.14433000       0.56446900
    17  C          0.07312140       0.42233000       0.37209110
    18  C          0.92687860       0.92233000       0.62790890
    19  H          0.10671800       0.27040000       0.40071400
    20  H          0.89328200       0.77040000       0.59928600
    21  N          0.94554860       0.40434000       0.36405110
    22  N          0.05445140       0.90434000       0.63594890
    23  H          0.91180000       0.55450000       0.34121700
    24  H          0.08820000       0.05450000       0.65878300
    25  H          0.93780000       0.38250000       0.41871800
    26  H          0.06220000       0.88250000       0.58128200
    27  H          0.91580000       0.28150000       0.33011800
    28  H          0.08420000       0.78150000       0.66988200
    29  S          0.62700400       0.61011100       0.68321400
    30  S          0.37299600       0.11011100       0.31678600
    31  H          0.62620000       0.71050000       0.61451600
    32  H          0.37380000       0.21050000       0.38548400
    33  O          0.31075120       0.97143000       0.66065100
    34  O          0.68924880       0.47143000       0.33934900
    35  N          0.39684140       0.42673000       0.72580110
    36  N          0.60315860       0.92673000       0.27419890
    37  H          0.43020000       0.32250000       0.76981600
    38  H          0.56980000       0.82250000       0.23018400
    39  H          0.32120000       0.45250000       0.72121500
    40  H          0.67880000       0.95250000       0.27878500
    41  H          0.43320000       0.56150000       0.74461500
    42  H          0.56680000       0.06150000       0.25538500
    43  O          0.34290130       0.03713000       0.52546100
    44  O          0.65709870       0.53713000       0.47453900
    45  H          0.29020000       0.86250000       0.49881700
    46  H          0.70980000       0.36250000       0.50118300
    47  C          0.54278160       0.32154000       0.64300130
    48  C          0.45721840       0.82154000       0.35699870
    49  H          0.57351900       0.18550000       0.68621500
    50  H          0.42648100       0.68550000       0.31378500
    51  H          0.55520000       0.28850000       0.58641600
    52  H          0.44480000       0.78850000       0.41358400
    53  C          0.41244150       0.35023000       0.63704110
    54  C          0.58755850       0.85023000       0.36295890
    55  H          0.37591900       0.49350000       0.59361500
    56  H          0.62408100      -0.00650000       0.40638500
    57  C          0.34884140       0.09624000       0.60840110
    58  C          0.65115860       0.59624000       0.39159890
    59  F          0.57027100       0.08572000       0.83518800
    60  F          0.42972900       0.58572000       0.16481200
    61  H          0.54820000       0.90550000       0.85991800
    62  H          0.45180000       0.40550000       0.14008200
    63  F          0.50953100       0.71372000       0.88290700
    64  F          0.49046900       0.21372000       0.11709300
    65  F          0.82922890      -0.02443000       0.28363100
    66  F          0.17077110       0.47557000       0.71636900
    67  S          0.13977400       0.66918900       0.06077400
    68  S          0.86022600       0.16918900       0.93922600
    69  H          0.21720000       0.64450000       0.11561600
    70  H          0.78280000       0.14450000       0.88438400
    71  N          0.37888130       0.83273000      -0.00018110
    72  N          0.62111870       0.33273000       0.00018110
    73  H          0.37881900       0.71750000       0.03781600
    74  H          0.62118100       0.21750000       0.96218400
    75  H          0.41720000       0.79450000       0.95938300
    76  H          0.58280000       0.29450000       0.04061700
    77  H          0.41220000       0.97050000       0.02901600
    78  H          0.58780000       0.47050000       0.97098400
    79  O          0.16396110       0.18443000       0.83063100
    80  O          0.83603890       0.68443000       0.16936900
    81  H          0.17020000       0.30950000       0.78888200
    82  H          0.82980000       0.80950000       0.21111800
    83  O          0.35190120       0.26853000       0.90458900
    84  O          0.64809880       0.76853000       0.09541100
    85  C          0.18091170       0.95354000       0.00988140
    86  C          0.81908830       0.45354000       0.99011860
    87  H          0.11220000       0.03450000       0.98018400
    88  H          0.88780000       0.53450000       0.01981600
    89  H          0.21720000       0.06450000       0.05581600
    90  H          0.78280000       0.56450000       0.94418400
    91  C          0.26318140       0.13994000       0.89089890
    92  C          0.73681860       0.63994000       0.10910110
    93  C          0.25708140       0.90193000       0.94673880
    94  C          0.74291860       0.40193000       0.05326120
    95  H          0.22701800       0.76040000       0.90638500
    96  H          0.77298200       0.26040000       0.09361500
