data_AHOGAI
_symmetry_space_group_name_H-M    'P1'
_symmetry_Int_Tables_number       1
loop_
_symmetry_equiv_pos_site_id
_symmetry_equiv_pos_as_xyz
1 x,y,z
_cell_length_a                   12.1146
_cell_length_b                   9.4615
_cell_length_c                   16.4268
_cell_angle_alpha                90.0
_cell_angle_beta                 106.1767
_cell_angle_gamma                90.0
loop_
_atom_site_label
_atom_site_type_symbol
_atom_site_fract_x
_atom_site_fract_y
_atom_site_fract_z
     1  Cl         0.18599700       0.85810300       0.56978500
     2  Cl         0.81400300       0.35810300       0.93021500
     3  Cl         0.81400300       0.14189700       0.43021500
     4  Cl         0.18599700       0.64189700       0.06978500
     5  P          0.44168500       0.44554700       0.60263400
     6  P          0.55831500       0.94554700       0.89736600
     7  P          0.55831500       0.55445300       0.39736600
     8  P          0.44168500       0.05445300       0.10263400
     9  O          0.34635160       0.23647190       0.78932100
    10  O          0.65364840       0.73647190       0.71067900
    11  O          0.65364840       0.76352810       0.21067900
    12  O          0.34635160       0.26352810       0.28932100
    13  H          0.37820000       0.17330000       0.81401800
    14  H          0.62180000       0.67330000       0.68598200
    15  H          0.62180000       0.82670000       0.18598200
    16  H          0.37820000       0.32670000       0.31401800
    17  O          0.54085140       0.54069180       0.60638100
    18  O          0.45914860       0.04069180       0.89361900
    19  O          0.45914860       0.45930820       0.39361900
    20  O          0.54085140       0.95930820       0.10638100
    21  O          0.48479160       0.30042000       0.64194120
    22  O          0.51520840       0.80042000       0.85805880
    23  O          0.51520840       0.69958000       0.35805880
    24  O          0.48479160       0.19958000       0.14194120
    25  H          0.46930000       0.24030000       0.60620000
    26  H          0.53070000       0.74030000       0.89380000
    27  H          0.53070000       0.75970000       0.39380000
    28  H          0.46930000       0.25970000       0.10620000
    29  O          0.36665140       0.42032000       0.51164110
    30  O          0.63334860       0.92032000       0.98835890
    31  O          0.63334860       0.57968000       0.48835890
    32  O          0.36665140       0.07968000       0.01164110
    33  H          0.40030000       0.44030000       0.47451900
    34  H          0.59970000       0.94030000       0.02548100
    35  H          0.59970000       0.55970000       0.52548100
    36  H          0.40030000       0.05970000       0.97451900
    37  O          0.12508130       0.39068180       0.52673100
    38  O          0.87491870       0.89068180       0.97326900
    39  O          0.87491870       0.60931820       0.47326900
    40  O          0.12508130       0.10931820       0.02673100
    41  C          0.35596180       0.52132000       0.66178130
    42  C          0.64403820       0.02132000       0.83821870
    43  C          0.64403820       0.47868000       0.33821870
    44  C          0.35596180       0.97868000       0.16178130
    45  H          0.37218300       0.61430300       0.67939200
    46  H          0.62781700       0.11430300       0.82060800
    47  H          0.62781700       0.38569700       0.32060800
    48  H          0.37218300       0.88569700       0.17939200
    49  C          0.27017170       0.45852000       0.68380120
    50  C          0.72982830       0.95852000       0.81619880
    51  C          0.72982830       0.54148000       0.31619880
    52  C          0.27017170       0.04148000       0.18380120
    53  C          0.23907170       0.30912000       0.65595130
    54  C          0.76092830       0.80912000       0.84404870
    55  C          0.76092830       0.69088000       0.34404870
    56  C          0.23907170       0.19088000       0.15595130
    57  C          0.17159170       0.27702000       0.57475130
    58  C          0.82840830       0.77702000       0.92524870
    59  C          0.82840830       0.72298000       0.42524870
    60  C          0.17159170       0.22298000       0.07475130
    61  C          0.15407180       0.13803000       0.54775140
    62  C          0.84592820       0.63803000       0.95224860
    63  C          0.84592820       0.86197000       0.45224860
    64  C          0.15407180       0.36197000       0.04775140
    65  H          0.10979200       0.11637600       0.49318900
    66  H          0.89020800       0.61637600       0.00681100
    67  H          0.89020800       0.88362400       0.50681100
    68  H          0.10979200       0.38362400      -0.00681100
    69  C          0.20371190       0.03312000       0.60358150
    70  C          0.79628810       0.53312000       0.89641850
    71  C          0.79628810       0.96688000       0.39641850
    72  C          0.20371190       0.46688000       0.10358150
    73  C          0.26659190       0.05982000       0.68503140
    74  C          0.73340810       0.55982000       0.81496860
    75  C          0.73340810       0.94018000       0.31496860
    76  C          0.26659190       0.44018000       0.18503140
    77  H          0.29694800      -0.01374000       0.72209500
    78  H          0.70305200       0.48626000       0.77790500
    79  H          0.70305200       0.01374000       0.27790500
    80  H          0.29694800       0.51374000       0.22209500
    81  C          0.28384180       0.19902000       0.71084130
    82  C          0.71615820       0.69902000       0.78915870
    83  C          0.71615820       0.80098000       0.28915870
    84  C          0.28384180       0.30098000       0.21084130
    85  C          0.20506180       0.52782000       0.73689130
    86  C          0.79493820       0.02782000       0.76310870
    87  C          0.79493820       0.47218000       0.26310870
    88  C          0.20506180       0.97218000       0.23689130
    89  C          0.23552000       0.65903000       0.77319170
    90  C          0.76448000       0.15903000       0.72680830
    91  C          0.76448000       0.34097000       0.22680830
    92  C          0.23552000       0.84097000       0.27319170
    93  H          0.29802500       0.70633400       0.76367200
    94  H          0.70197500       0.20633400       0.73632800
    95  H          0.70197500       0.29366600       0.23632800
    96  H          0.29802500       0.79366600       0.26367200
    97  C          0.17483000       0.72053000       0.82312000
    98  C          0.82517000       0.22053000       0.67688000
    99  C          0.82517000       0.27947000       0.17688000
   100  C          0.17483000       0.77947000       0.32312000
   101  H          0.19662700       0.80869500       0.84723300
   102  H          0.80337300       0.30869500       0.65276700
   103  H          0.80337300       0.19130500       0.15276700
   104  H          0.19662700       0.69130500       0.34723300
   105  C          0.08293000       0.65274000       0.83752000
   106  C          0.91707000       0.15274000       0.66248000
   107  C          0.91707000       0.34726000       0.16248000
   108  C          0.08293000       0.84726000       0.33752000
   109  H          0.04145700       0.69513900       0.87071000
   110  H          0.95854300       0.19513900       0.62929000
   111  H          0.95854300       0.30486100       0.12929000
   112  H          0.04145700       0.80486100       0.37071000
   113  C          0.05162000       0.52274000       0.80312000
   114  C          0.94838000       0.02274000       0.69688000
   115  C          0.94838000       0.47726000       0.19688000
   116  C          0.05162000       0.97726000       0.30312000
   117  H         -0.01076600       0.47609000       0.81338500
   118  H          0.01076600       0.97609000       0.68661500
   119  H          0.01076600       0.52391000       0.18661500
   120  H         -0.01076600       0.02391000       0.31338500
   121  C          0.11222000       0.46023000       0.75314160
   122  C          0.88778000       0.96023000       0.74685840
   123  C          0.88778000       0.53977000       0.24685840
   124  C          0.11222000       0.03977000       0.25314160
   125  H          0.09044200       0.37133800       0.73002600
   126  H          0.90955800       0.87133800       0.76997400
   127  H          0.90955800       0.62866200       0.26997400
   128  H          0.09044200       0.12866200       0.23002600
   129  C          0.08253000       0.37283000       0.43695160
   130  C          0.91747000       0.87283000       0.06304840
   131  C          0.91747000       0.62717000       0.56304840
   132  C          0.08253000       0.12717000       0.93695160
   133  H          0.06450600       0.46359300       0.41043900
   134  H          0.93549400       0.96359300       0.08956100
   135  H          0.93549400       0.53640700       0.58956100
   136  H          0.06450600       0.03640700       0.91043900
   137  H          0.01451400       0.31546300       0.42414900
   138  H         -0.01451400       0.81546300       0.07585100
   139  H         -0.01451400       0.68453700       0.57585100
   140  H          0.01451400       0.18453700       0.92414900
   141  H          0.14007100       0.32749800       0.41600900
   142  H          0.85992900       0.82749800       0.08399100
   143  H          0.85992900       0.67250200       0.58399100
   144  H          0.14007100       0.17250200       0.91600900
   145  O          0.44285160       0.07449180       0.54920110
   146  O          0.55714840       0.57449180       0.95079890
   147  O          0.55714840       0.92550820       0.45079890
   148  O          0.44285160       0.42550820       0.04920110
   149  C          0.51022000       0.95287000       0.58200160
   150  C          0.48978000       0.45287000       0.91799840
   151  C          0.48978000       0.04713000       0.41799840
   152  C          0.51022000       0.54713000       0.08200160
   153  H          0.46163600       0.86951600       0.57186800
   154  H          0.53836400       0.36951600       0.92813200
   155  H          0.53836400       0.13048400       0.42813200
   156  H          0.46163600       0.63048400       0.07186800
   157  H          0.54289000       0.96299900       0.64272500
   158  H          0.45711000       0.46299900       0.85727500
   159  H          0.45711000       0.03700100       0.35727500
   160  H          0.54289000       0.53700100       0.14272500
   161  C          0.39562000       0.06463000       0.45955160
   162  C          0.60438000       0.56463000       0.04044840
   163  C          0.60438000       0.93537000       0.54044840
   164  C          0.39562000       0.43537000       0.95955160
   165  H          0.35206800       0.14951300       0.43843900
   166  H          0.64793200       0.64951300       0.06156100
   167  H          0.64793200       0.85048700       0.56156100
   168  H          0.35206800       0.35048700       0.93843900
   169  H          0.34369300       0.98453400       0.44595000
   170  H          0.65630700       0.48453400       0.05405000
   171  H          0.65630700       0.01546600       0.55405000
   172  H          0.34369300       0.51546600       0.94595000
