data_AJAGIB
_symmetry_space_group_name_H-M    'P1'
_symmetry_Int_Tables_number       1
loop_
_symmetry_equiv_pos_site_id
_symmetry_equiv_pos_as_xyz
1 x,y,z
_cell_length_a                   9.828311
_cell_length_b                   6.19357
_cell_length_c                   10.646512
_cell_angle_alpha                90.0
_cell_angle_beta                 106.6162
_cell_angle_gamma                90.0
loop_
_atom_site_label
_atom_site_type_symbol
_atom_site_fract_x
_atom_site_fract_y
_atom_site_fract_z
     1  Cl         0.34271400       0.11166600       0.58194400
     2  Cl         0.65728600       0.61166600       0.91805600
     3  Cl         0.65728600       0.88833400       0.41805600
     4  Cl         0.34271400       0.38833400       0.08194400
     5  C          0.42489150       0.32502000       0.53546160
     6  C          0.57510850       0.82502000       0.96453840
     7  C          0.57510850       0.67498000       0.46453840
     8  C          0.42489150       0.17498000       0.03546160
     9  C          0.36128150       0.47532000       0.44071150
    10  C          0.63871850       0.97532000       0.05928850
    11  C          0.63871850       0.52468000       0.55928850
    12  C          0.36128150       0.02468000       0.94071150
    13  O          0.23274110       0.46952000       0.38122130
    14  O          0.76725890       0.96952000       0.11877870
    15  O          0.76725890       0.53048000       0.61877870
    16  O          0.23274110       0.03048000       0.88122130
    17  H          0.21630000       0.56850000       0.31830000
    18  H          0.78370000       0.06850000       0.18170000
    19  H          0.78370000       0.43150000       0.68170000
    20  H          0.21630000       0.93150000       0.81830000
    21  C          0.56609150       0.33982000       0.60174150
    22  C          0.43390850       0.83982000       0.89825850
    23  C          0.43390850       0.66018000       0.39825850
    24  C          0.56609150       0.16018000       0.10174150
    25  O          0.62785120       0.20970190       0.68931120
    26  O          0.37214880       0.70970190       0.81068880
    27  O          0.37214880       0.79029810       0.31068880
    28  O          0.62785120       0.29029810       0.18931120
    29  N          0.03114130       0.29482000       0.55404130
    30  N          0.96885870       0.79482000       0.94595870
    31  N          0.96885870       0.70518000       0.44595870
    32  N          0.03114130       0.20518000       0.05404130
    33  H          0.05020000       0.17740000       0.58520000
    34  H          0.94980000       0.67740000       0.91480000
    35  H          0.94980000       0.82260000       0.41480000
    36  H          0.05020000       0.32260000       0.08520000
    37  C          0.95001140       0.30692000       0.42426150
    38  C          0.04998860       0.80692000       0.07573850
    39  C          0.04998860       0.69308000       0.57573850
    40  C          0.95001140       0.19308000       0.92426150
    41  O          0.90728120       0.14055170       0.35335120
    42  O          0.09271880       0.64055170       0.14664880
    43  O          0.09271880       0.85944830       0.64664880
    44  O          0.90728120       0.35944830       0.85335120
    45  C          0.09301160       0.47682000       0.64119160
    46  C          0.90698840       0.97682000       0.85880840
    47  C          0.90698840       0.52318000       0.35880840
    48  C          0.09301160       0.02318000       0.14119160
    49  H          0.18930000       0.46740000       0.65730000
    50  H          0.81070000       0.96740000       0.84270000
    51  H          0.81070000       0.53260000       0.34270000
    52  H          0.18930000       0.03260000       0.15730000
    53  H          0.07430000       0.46940000       0.73620000
    54  H          0.92570000       0.96940000       0.76380000
    55  H          0.92570000       0.53060000       0.26380000
    56  H          0.07430000       0.03060000       0.23620000
