data_AJAHUO
_symmetry_space_group_name_H-M    'P1'
_symmetry_Int_Tables_number       1
loop_
_symmetry_equiv_pos_site_id
_symmetry_equiv_pos_as_xyz
1 x,y,z
_cell_length_a                   6.639312
_cell_length_b                   6.991313
_cell_length_c                   7.062714
_cell_angle_alpha                100.3714
_cell_angle_beta                 97.4334
_cell_angle_gamma                92.8384
loop_
_atom_site_label
_atom_site_type_symbol
_atom_site_fract_x
_atom_site_fract_y
_atom_site_fract_z
     1  Cl         0.21002700       0.12120700       0.91757700
     2  Cl         0.78997300       0.87879300       0.08242300
     3  C          0.30373000       0.50423000       0.89363000
     4  C          0.69627000       0.49577000       0.10637000
     5  C          0.36393000       0.33723000       0.96273000
     6  C          0.63607000       0.66277000       0.03727000
     7  C          0.55503000       0.33423000       0.06693000
     8  C          0.44497000       0.66577000       0.93307000
     9  H          0.59040000       0.22430000       0.11630000
    10  H          0.40960000       0.77570000       0.88370000
    11  C          0.09693000       0.51893000       0.78593000
    12  C          0.90307000       0.48107000       0.21407000
    13  O          0.95488000       0.39902000       0.77002000
    14  O          0.04512000       0.60098000       0.22998000
    15  O          0.08482000       0.68102000       0.71282000
    16  O          0.91518000       0.31898000       0.28718000
    17  H          0.95950000       0.67850000       0.65050000
    18  H          0.04050000       0.32150000       0.34950000
    19  C          0.39023000       0.16903000       0.47333000
    20  C          0.60977000       0.83097000       0.52667000
    21  O          0.29062000       0.31052000       0.44922000
    22  O          0.70938000       0.68948000       0.55078000
    23  N          0.58502000       0.19022000       0.55132000
    24  N          0.41498000       0.80978000       0.44868000
    25  H          0.63440000       0.31240000       0.59040000
    26  H          0.36560000       0.68760000       0.40960000
    27  C          0.28783000       0.96597000       0.41233000
    28  C          0.71217000       0.03403000       0.58767000
    29  H          0.23640000       0.94960000       0.26940000
    30  H          0.76360000       0.05040000       0.73060000
    31  H          0.16450000       0.95550000       0.48540000
    32  H          0.83550000       0.04450000       0.51460000
