data_AJAHEY
_symmetry_space_group_name_H-M    'P1'
_symmetry_Int_Tables_number       1
loop_
_symmetry_equiv_pos_site_id
_symmetry_equiv_pos_as_xyz
1 x,y,z
_cell_length_a                   11.8162
_cell_length_b                   5.45521
_cell_length_c                   14.3313
_cell_angle_alpha                90.0
_cell_angle_beta                 98.2552
_cell_angle_gamma                90.0
loop_
_atom_site_label
_atom_site_type_symbol
_atom_site_fract_x
_atom_site_fract_y
_atom_site_fract_z
     1  Cl         0.58545400       0.15868700       0.15594300
     2  Cl         0.91454600       0.65868700       0.34405700
     3  Cl         0.41454600       0.84131300       0.84405700
     4  Cl         0.08545400       0.34131300       0.65594300
     5  C          0.66084130       0.51133000       0.92749900
     6  C          0.83915870       0.01133000       0.57250100
     7  C          0.33915870       0.48867000       0.07250100
     8  C          0.16084130      -0.01133000       0.42749900
     9  C          0.72828140       0.70753000       0.96745890
    10  C          0.77171860       0.20753000       0.53254110
    11  C          0.27171860       0.29247000       0.03254110
    12  C          0.22828140       0.79247000       0.46745890
    13  O          0.77248100       0.88092000       0.91414100
    14  O          0.72751900       0.38092000       0.58585900
    15  O          0.22751900       0.11908000       0.08585900
    16  O          0.27248100       0.61908000       0.41414100
    17  H          0.75220000       0.84940000       0.85778300
    18  H          0.74780000       0.34940000       0.64221700
    19  H          0.24780000       0.15060000       0.14221700
    20  H          0.25220000       0.65060000       0.35778300
    21  C          0.75164140       0.73113000       0.06517110
    22  C          0.74835860       0.23113000       0.43482890
    23  C          0.24835860       0.26887000       0.93482890
    24  C          0.25164140       0.76887000       0.56517110
    25  H          0.79461600       0.85930000       0.09181200
    26  H          0.70538400       0.35930000       0.40818800
    27  H          0.20538400       0.14070000       0.90818800
    28  H          0.29461600       0.64070000       0.59181200
    29  C          0.70859140       0.56263000       0.12285110
    30  C          0.79140860       0.06263000       0.37714890
    31  C          0.29140860       0.43737000       0.87714890
    32  C          0.20859140       0.93737000       0.62285110
    33  H          0.72481600       0.58430000       0.19221300
    34  H          0.77518400       0.08430000       0.30778700
    35  H          0.27518400       0.41570000       0.80778700
    36  H          0.22481600       0.91570000       0.69221300
    37  C          0.64239140       0.36803000       0.08306110
    38  C          0.85760860       0.86803000       0.41693890
    39  C          0.35760860       0.63197000       0.91693890
    40  C          0.14239140       0.13197000       0.58306110
    41  C          0.61786140       0.34133000       0.98653890
    42  C          0.88213860       0.84133000       0.51346110
    43  C          0.38213860       0.65867000       0.01346110
    44  C          0.11786140       0.15867000       0.48653890
    45  H          0.57101600       0.21230000       0.95878800
    46  H          0.92898400       0.71230000       0.54121200
    47  H          0.42898400       0.78770000       0.04121200
    48  H          0.07101600       0.28770000       0.45878800
    49  C          0.63180140       0.49063000       0.82364890
    50  C          0.86819860      -0.00937000       0.67635110
    51  C          0.36819860       0.50937000       0.17635110
    52  C          0.13180140       0.00937000       0.32364890
    53  O          0.67273100       0.62792000       0.76890200
    54  O          0.82726900       0.12792000       0.73109800
    55  O          0.32726900       0.37208000       0.23109800
    56  O          0.17273100       0.87208000       0.26890200
    57  O          0.55753100       0.31652000       0.79629200
    58  O          0.94246900       0.81652000       0.70370800
    59  O          0.44246900       0.68348000       0.20370800
    60  O          0.05753100       0.18348000       0.29629200
    61  H          0.53020000       0.33140000       0.73318100
    62  H          0.96980000       0.83140000       0.76681900
    63  H          0.46980000       0.66860000       0.26681900
    64  H          0.03020000       0.16860000       0.23318100
    65  N          0.94098120       0.28642000       0.97528100
    66  N          0.55901880       0.78642000       0.52471900
    67  N          0.05901880       0.71358000       0.02471900
    68  N          0.44098120       0.21358000       0.47528100
    69  H          0.89921700       0.15730000       0.95978700
    70  H          0.60078300       0.65730000       0.54021300
    71  H          0.10078300       0.84270000       0.04021300
    72  H          0.39921700       0.34270000       0.45978700
    73  C          0.97532130       0.31773000       0.06652110
    74  C          0.52467870       0.81773000       0.43347890
    75  C          0.02467870       0.68227000       0.93347890
    76  C          0.47532130       0.18227000       0.56652110
    77  O          0.95707100       0.16032000       0.12594800
    78  O          0.54292900       0.66032000       0.37405200
    79  O          0.04292900       0.83968000       0.87405200
    80  O          0.45707100       0.33968000       0.62594800
    81  C          0.96353140       0.44963000       0.90010890
    82  C          0.53646860       0.94963000       0.59989110
    83  C          0.03646860       0.55037000       0.09989110
    84  C          0.46353140       0.05037000       0.40010890
    85  H          0.89541400       0.49030000       0.85948900
    86  H          0.60458600      -0.00970000       0.64051100
    87  H          0.10458600       0.50970000       0.14051100
    88  H          0.39541400       0.00970000       0.35948900
    89  H          0.01181600       0.36830000       0.86208700
    90  H          0.48818400       0.86830000       0.63791300
    91  H         -0.01181600       0.63170000       0.13791300
    92  H          0.51181600       0.13170000       0.36208700
