data_AJOGUE
_symmetry_space_group_name_H-M    'P1'
_symmetry_Int_Tables_number       1
loop_
_symmetry_equiv_pos_site_id
_symmetry_equiv_pos_as_xyz
1 x,y,z
_cell_length_a                   9.34241
_cell_length_b                   9.351111
_cell_length_c                   14.541915
_cell_angle_alpha                102.8559
_cell_angle_beta                 95.6319
_cell_angle_gamma                96.2609
loop_
_atom_site_label
_atom_site_type_symbol
_atom_site_fract_x
_atom_site_fract_y
_atom_site_fract_z
     1  I          0.64240100       0.68420110       0.34296700
     2  I          0.35759900       0.31579890       0.65703300
     3  I          0.87214100       0.33171110       0.38275800
     4  I          0.12785900       0.66828890       0.61724200
     5  I          0.29290100       0.89526120       0.39278800
     6  I          0.70709900       0.10473880       0.60721200
     7  F         -0.01101000       0.68811000       0.36386000
     8  F          0.01101000       0.31189000       0.63614000
     9  F          0.15708000       0.19011000       0.40656000
    10  F          0.84292000       0.80989000       0.59344000
    11  F          0.66018000       0.02781100       0.34806000
    12  F          0.33982000       0.97218900       0.65194000
    13  C          0.04851400       0.08571700       0.38919000
    14  C          0.95148600       0.91428300       0.61081000
    15  C          0.90701500       0.11531600       0.37829000
    16  C          0.09298500       0.88468400       0.62171000
    17  C          0.07851400       0.93941800       0.38331100
    18  C          0.92148600       0.06058200       0.61668900
    19  C          0.81881500       0.85731900       0.35761000
    20  C          0.18118500       0.14268100       0.64239000
    21  C          0.79781600       0.00020000       0.36281100
    22  C          0.20218400      -0.00020000       0.63718900
    23  C          0.95961400       0.82951700       0.36891000
    24  C          0.04038600       0.17048300       0.63109000
    25  I          0.12024100       0.04797120       0.13740700
    26  I          0.87975900       0.95202880       0.86259300
    27  I          0.89723900       0.40668880       0.11212700
    28  I          0.10276100       0.59331120       0.88787300
    29  I          0.47372900       0.83713880       0.08468800
    30  I          0.52627100       0.16286120       0.91531200
    31  F          0.10988000       0.71169000       0.14076000
    32  F          0.89012000       0.28831000       0.85924000
    33  F          0.61042000       0.54399000       0.07956000
    34  F          0.38958000       0.45601000       0.92044000
    35  F          0.77771000       0.04671000       0.11527000
    36  F          0.22229000       0.95329000       0.88473000
    37  C          0.97128600       0.73908200       0.12509000
    38  C          0.02871400       0.26091800       0.87491000
    39  C          0.71678600       0.65248300       0.09561000
    40  C          0.28321400       0.34751700       0.90439000
    41  C          0.80388600       0.91008200       0.11171100
    42  C          0.19611400       0.08991800       0.88828900
    43  C          0.68768700       0.79458400       0.09671000
    44  C          0.31231300       0.20541600       0.90329000
    45  C          0.94738500       0.88368300       0.12511100
    46  C          0.05261500       0.11631700       0.87488900
    47  C          0.85978500       0.62178200       0.11111000
    48  C          0.14021500       0.37821800       0.88889000
    49  O          0.36471100       0.27121300       0.14518000
    50  O          0.63528900       0.72878700       0.85482000
    51  N          0.36671500       0.50341600       0.42729000
    52  N          0.63328500       0.49658400       0.57271000
    53  H          0.35113000       0.59740000       0.43581800
    54  H          0.64887000       0.40260000       0.56418200
    55  H          0.29340000       0.43830000       0.43230000
    56  H          0.70660000       0.56170000       0.56770000
    57  N          0.40411200       0.46541400       0.33199000
    58  N          0.59588800       0.53458600       0.66801000
    59  C          0.31851600       0.41291800       0.16181100
    60  C          0.68148400       0.58708200       0.83818900
    61  H          0.23390000       0.41000000       0.11680000
    62  H          0.76610000       0.59000000       0.88320000
    63  H          0.39490000       0.48360000       0.15060000
    64  H          0.60510000       0.51640000       0.84940000
    65  C          0.28061600       0.46621800       0.26299000
    66  C          0.71938400       0.53378200       0.73701000
    67  H          0.25480000       0.56560000       0.27140000
    68  H          0.74520000       0.43440000       0.72860000
    69  H          0.19780000       0.40180000       0.27280000
    70  H          0.80220000       0.59820000       0.72720000
    71  C          0.44971500       0.31661800       0.31401100
    72  C          0.55028500       0.68338200       0.68598900
    73  H          0.37230000       0.24580000       0.32400000
    74  H          0.62770000       0.75420000       0.67600000
    75  H          0.53430000       0.31680000       0.35850000
    76  H          0.46570000       0.68320000       0.64150000
    77  C          0.48571600       0.27071900       0.21331100
    78  C          0.51428400       0.72928100       0.78668900
    79  H          0.56720000       0.33820000       0.20480000
    80  H          0.43280000       0.66180000       0.79520000
    81  H          0.51410000       0.17220000       0.20270000
    82  H          0.48590000       0.82780000       0.79730000
