data_AJOHOZ
_symmetry_space_group_name_H-M    'P1'
_symmetry_Int_Tables_number       1
loop_
_symmetry_equiv_pos_site_id
_symmetry_equiv_pos_as_xyz
1 x,y,z
_cell_length_a                   9.229012
_cell_length_b                   6.38268
_cell_length_c                   34.6725
_cell_angle_alpha                90.0
_cell_angle_beta                 90.61313
_cell_angle_gamma                90.0
loop_
_atom_site_label
_atom_site_type_symbol
_atom_site_fract_x
_atom_site_fract_y
_atom_site_fract_z
     1  I          0.19223300       0.85873300       0.58401200
     2  I          0.30776700       0.35873300       0.91598800
     3  I          0.80776700       0.14126700       0.41598800
     4  I          0.69223300       0.64126700       0.08401200
     5  F          0.05962000       0.30293000       0.60820500
     6  F          0.44038000       0.80293000       0.89179500
     7  F          0.94038000       0.69707000       0.39179500
     8  F          0.55962000       0.19707000       0.10820500
     9  F          0.39232000       0.81333000       0.65880600
    10  F          0.10768000       0.31333000       0.84119400
    11  F          0.60768000       0.18667000       0.34119400
    12  F          0.89232000       0.68667000       0.15880600
    13  F          0.10572000       0.54913000       0.66976600
    14  F          0.39428000       0.04913000       0.83023400
    15  F          0.89428000       0.45087000       0.33023400
    16  F          0.60572000       0.95087000       0.16976600
    17  F          0.43752000       0.06403000       0.71957500
    18  F          0.06248000       0.56403000       0.78042500
    19  F          0.56248000       0.93597000       0.28042500
    20  F          0.93752000       0.43597000       0.21957500
    21  F          0.29402000       0.43163000       0.72536600
    22  F          0.20598000       0.93163000       0.77463400
    23  F          0.70598000       0.56837000       0.27463400
    24  F          0.79402000       0.06837000       0.22536600
    25  C          0.22513000       0.05145000       0.63169800
    26  C          0.27487000       0.55145000       0.86830200
    27  C          0.77487000       0.94855000       0.36830200
    28  C          0.72513000       0.44855000       0.13169800
    29  C          0.31923000      -0.00536000       0.66069900
    30  C          0.18077000       0.49464000       0.83930100
    31  C          0.68077000       0.00536000       0.33930100
    32  C          0.81923000       0.50536000       0.16069900
    33  C          0.15333000       0.23965000       0.63527900
    34  C          0.34667000       0.73965000       0.86472100
    35  C          0.84667000       0.76035000       0.36472100
    36  C          0.65333000       0.26035000       0.13527900
    37  C          0.17633000       0.36675000       0.66675900
    38  C          0.32367000       0.86675000       0.83324100
    39  C          0.82367000       0.63325000       0.33324100
    40  C          0.67633000       0.13325000       0.16675900
    41  C          0.27074000       0.30615000       0.69482900
    42  C          0.22926000       0.80615000       0.80517100
    43  C          0.72926000       0.69385000       0.30517100
    44  C          0.77074000       0.19385000       0.19482900
    45  C          0.34293000       0.12005000       0.69209900
    46  C          0.15707000       0.62005000       0.80790100
    47  C          0.65707000       0.87995000       0.30790100
    48  C          0.84293000       0.37995000       0.19209900
    49  O          0.47622000       0.81837000       0.42398600
    50  O          0.02378000       0.31837000       0.07601400
    51  O          0.52378000       0.18163000       0.57601400
    52  O          0.97622000       0.68163000       0.92398600
    53  H          0.45230000       0.92560000       0.43530000
    54  H          0.04770000       0.42560000       0.06470000
    55  H          0.54770000       0.07440000       0.56470000
    56  H          0.95230000       0.57440000       0.93530000
    57  O          0.17522000       0.56493000       0.51768600
    58  O          0.32478000       0.06493000       0.98231400
    59  O          0.82478000       0.43507000       0.48231400
    60  O          0.67522000       0.93507000       0.01768600
    61  N          0.33282000       0.15914000       0.43524700
    62  N          0.16718000       0.65914000       0.06475300
    63  N          0.66718000       0.84086000       0.56475300
    64  N          0.83282000       0.34086000       0.93524700
    65  N          0.30802000       0.33093000       0.45852600
    66  N          0.19198000       0.83093000       0.04147400
    67  N          0.69198000       0.66907000       0.54147400
    68  N          0.80802000       0.16907000       0.95852600
    69  C          0.27023000       0.13484000       0.40252800
    70  C          0.22977000       0.63484000       0.09747200
    71  C          0.72977000       0.86516000       0.59747200
    72  C          0.77023000       0.36516000       0.90252800
    73  H          0.20410000       0.23470000       0.39380000
    74  H          0.29590000       0.73470000       0.10620000
    75  H          0.79590000       0.76530000       0.60620000
    76  H          0.70410000       0.26530000       0.89380000
    77  C          0.30093000       0.95236000       0.37856800
    78  C          0.19907000       0.45236000       0.12143200
    79  C          0.69907000       0.04764000       0.62143200
    80  C          0.80093000       0.54764000       0.87856800
    81  C          0.22633000       0.92106000       0.34251800
    82  C          0.27367000       0.42106000       0.15748200
    83  C          0.77367000       0.07894000       0.65748200
    84  C          0.72633000       0.57894000       0.84251800
    85  C          0.39893000       0.80086000       0.39090900
    86  C          0.10107000       0.30086000       0.10909100
    87  C          0.60107000       0.19914000       0.60909100
    88  C          0.89893000       0.69914000       0.89090900
    89  C          0.18073000       0.45864000       0.45064800
    90  C          0.31927000       0.95864000       0.04935200
    91  C          0.81927000       0.54136000       0.54935200
    92  C          0.68073000       0.04136000       0.95064800
    93  H          0.09410000       0.37330000       0.45260000
    94  H          0.40590000       0.87330000       0.04740000
    95  H          0.90590000       0.62670000       0.54740000
    96  H          0.59410000       0.12670000       0.95260000
    97  H          0.18500000       0.51340000       0.42460000
    98  H          0.31500000       0.01340000       0.07540000
    99  H          0.81500000       0.48660000       0.57540000
   100  H          0.68500000      -0.01340000       0.92460000
   101  C          0.12993000       0.06895000       0.32630800
   102  C          0.37007000       0.56895000       0.17369200
   103  C          0.87007000       0.93105000       0.67369200
   104  C          0.62993000       0.43105000       0.82630800
   105  H          0.11340000       0.19410000       0.33930000
   106  H          0.38660000       0.69410000       0.16070000
   107  H          0.88660000       0.80590000       0.66070000
   108  H          0.61340000       0.30590000       0.83930000
   109  C          0.24943000       0.73215000       0.32146900
   110  C          0.25057000       0.23215000       0.17853100
   111  C          0.75057000       0.26785000       0.67853100
   112  C          0.74943000       0.76785000       0.82146900
   113  C          0.17484000       0.70005000       0.28662900
   114  C          0.32516000       0.20005000       0.21337100
   115  C          0.82516000       0.29995000       0.71337100
   116  C          0.67484000       0.79995000       0.78662900
   117  H          0.18920000       0.57630000       0.27310000
   118  H          0.31080000       0.07630000       0.22690000
   119  H          0.81080000       0.42370000       0.72690000
   120  H          0.68920000       0.92370000       0.77310000
   121  C          0.42213000       0.61655000       0.36936100
   122  C          0.07787000       0.11655000       0.13063900
   123  C          0.57787000       0.38345000       0.63063900
   124  C          0.92213000       0.88345000       0.86936100
   125  H          0.48830000       0.51740000       0.37820000
   126  H          0.01170000       0.01740000       0.12180000
   127  H          0.51170000       0.48260000       0.62180000
   128  H         -0.01170000      -0.01740000       0.87820000
   129  C          0.34884000       0.58325000       0.33610100
   130  C          0.15116000       0.08325000       0.16389900
   131  C          0.65116000       0.41675000       0.66389900
   132  C          0.84884000       0.91675000       0.83610100
   133  H          0.36410000       0.45970000       0.32250000
   134  H          0.13590000       0.95970000       0.17750000
   135  H          0.63590000       0.54030000       0.67750000
   136  H          0.86410000       0.04030000       0.82250000
   137  C          0.06064000       0.03295000       0.29225900
   138  C          0.43936000       0.53295000       0.20774100
   139  C          0.93936000       0.96705000       0.70774100
   140  C          0.56064000       0.46705000       0.79225900
   141  H         -0.00170000       0.13390000       0.28210000
   142  H          0.50170000       0.63390000       0.21790000
   143  H          0.00170000       0.86610000       0.71790000
   144  H          0.49830000       0.36610000       0.78210000
   145  C          0.08184000       0.84544000       0.27215900
   146  C          0.41816000       0.34544000       0.22784100
   147  C          0.91816000       0.15456000       0.72784100
   148  C          0.58184000       0.65456000       0.77215900
   149  H          0.03250000       0.82080000       0.24910000
   150  H          0.46750000       0.32080000       0.25090000
   151  H          0.96750000       0.17920000       0.75090000
   152  H          0.53250000       0.67920000       0.74910000
   153  C          0.31324000       0.26055000       0.49851800
   154  C          0.18676000       0.76055000       0.00148200
   155  C          0.68676000       0.73945000       0.50148200
   156  C          0.81324000       0.23945000      -0.00148200
   157  H          0.40300000       0.18560000       0.50340000
   158  H          0.09700000       0.68560000      -0.00340000
   159  H          0.59700000       0.81440000       0.49660000
   160  H          0.90300000       0.31440000       0.00340000
   161  H          0.23330000       0.16560000       0.50330000
   162  H          0.26670000       0.66560000      -0.00330000
   163  H          0.76670000       0.83440000       0.49670000
   164  H          0.73330000       0.33440000       0.00330000
   165  C          0.17343000       0.63745000       0.47894900
   166  C          0.32657000       0.13745000       0.02105100
   167  C          0.82657000       0.36255000       0.52105100
   168  C          0.67343000       0.86255000       0.97894900
   169  H          0.25520000       0.73010000       0.47500000
   170  H          0.24480000       0.23010000       0.02500000
   171  H          0.74480000       0.26990000       0.52500000
   172  H          0.75520000       0.76990000       0.97500000
   173  H          0.08540000       0.71700000       0.47430000
   174  H          0.41460000       0.21700000       0.02570000
   175  H          0.91460000       0.28300000       0.52570000
   176  H          0.58540000       0.78300000       0.97430000
   177  C          0.30354000       0.44736000       0.52516900
   178  C          0.19646000       0.94736000       0.97483100
   179  C          0.69646000       0.55264000       0.47483100
   180  C          0.80354000       0.05264000       0.02516900
   181  H          0.30380000       0.39950000       0.55170000
   182  H          0.19620000       0.89950000       0.94830000
   183  H          0.69620000       0.60050000       0.44830000
   184  H          0.80380000       0.10050000       0.05170000
   185  H          0.38750000       0.53630000       0.52160000
   186  H          0.11250000       0.03630000       0.97840000
   187  H          0.61250000       0.46370000       0.47840000
   188  H          0.88750000       0.96370000       0.02160000
