data_AKAVEN
_symmetry_space_group_name_H-M    'P1'
_symmetry_Int_Tables_number       1
loop_
_symmetry_equiv_pos_site_id
_symmetry_equiv_pos_as_xyz
1 x,y,z
_cell_length_a                   15.7223
_cell_length_b                   3.78901
_cell_length_c                   24.4055
_cell_angle_alpha                90.0
_cell_angle_beta                 91.851
_cell_angle_gamma                90.0
loop_
_atom_site_label
_atom_site_type_symbol
_atom_site_fract_x
_atom_site_fract_y
_atom_site_fract_z
     1  C          0.79261120       0.33275000       0.47219800
     2  C          0.70738880       0.33275000       0.02780200
     3  C          0.20738880       0.66725000       0.52780200
     4  C          0.29261120       0.66725000       0.97219800
     5  C          0.75039130       0.48106000       0.51571900
     6  C          0.74960870       0.48106000       0.98428100
     7  C          0.24960870       0.51894000       0.48428100
     8  C          0.25039130       0.51894000       0.01571900
     9  C          0.66774120       0.59415000       0.50774800
    10  C          0.83225880       0.59415000       0.99225200
    11  C          0.33225880       0.40585000       0.49225200
    12  C          0.16774120       0.40585000       0.00774800
    13  C          0.62383130       0.55856000       0.45838900
    14  C          0.87616870       0.55856000       0.04161100
    15  C          0.37616870       0.44144000       0.54161100
    16  C          0.12383130       0.44144000       0.95838900
    17  C          0.66625120       0.40135000       0.41658800
    18  C          0.83374880       0.40135000       0.08341200
    19  C          0.33374880       0.59865000       0.58341200
    20  C          0.16625120       0.59865000       0.91658800
    21  C          0.74988130       0.29116000       0.42210900
    22  C          0.75011870       0.29116000       0.07789100
    23  C          0.25011870       0.70884000       0.57789100
    24  C          0.24988130       0.70884000       0.92210900
    25  C          0.88192120       0.20605000       0.48290800
    26  C          0.61807880       0.20605000       0.01709200
    27  C          0.11807880       0.79395000       0.51709200
    28  C          0.38192120       0.79395000       0.98290800
    29  N          0.62542120       0.75975000       0.55388800
    30  N          0.87457880       0.75975000       0.94611200
    31  N          0.37457880       0.24025000       0.44611200
    32  N          0.12542120       0.24025000       0.05388800
    33  N          0.61958120       0.34386000       0.36401800
    34  N          0.88041880       0.34386000       0.13598200
    35  N          0.38041880       0.65614000       0.63598200
    36  N          0.11958120       0.65614000       0.86401800
    37  N          0.93565130       0.24456000       0.44327900
    38  N          0.56434870       0.24456000       0.05672100
    39  N          0.06434870       0.75544000       0.55672100
    40  N          0.43565130       0.75544000       0.94327900
    41  O          0.66300120       0.76817000       0.59760700
    42  O          0.83699880       0.76817000       0.90239300
    43  O          0.33699880       0.23183000       0.40239300
    44  O          0.16300120       0.23183000       0.09760700
    45  O          0.55533100       0.88255000       0.54572700
    46  O          0.94466900       0.88255000       0.95427300
    47  O          0.44466900       0.11745000       0.45427300
    48  O          0.05533100       0.11745000       0.04572700
    49  O          0.55054110       0.48426000       0.35720700
    50  O          0.94945890       0.48426000       0.14279300
    51  O          0.44945890       0.51574000       0.64279300
    52  O          0.05054110       0.51574000       0.85720700
    53  O          0.65262110       0.15576000       0.33019700
    54  O          0.84737890       0.15576000       0.16980300
    55  O          0.34737890       0.84424000       0.66980300
    56  O          0.15262110       0.84424000       0.83019700
    57  O          0.89955900       0.07184000       0.52763600
    58  O          0.60044100       0.07184000       0.97236400
    59  O          0.10044100       0.92816000       0.47236400
    60  O          0.39955900       0.92816000       0.02763600
    61  H          0.77881300       0.51250000       0.55009000
    62  H          0.72118700       0.51250000       0.94991000
    63  H          0.22118700       0.48750000       0.44991000
    64  H          0.27881300       0.48750000       0.05009000
    65  H          0.56711300       0.62450000       0.45397000
    66  H          0.93288700       0.62450000       0.04603000
    67  H          0.43288700       0.37550000       0.54603000
    68  H          0.06711300       0.37550000       0.95397000
    69  H          0.77551200       0.19250000       0.39398000
    70  H          0.72448800       0.19250000       0.10602000
    71  H          0.22448800       0.80750000       0.60602000
    72  H          0.27551200       0.80750000       0.89398000
    73  H          0.92221500       0.35470000       0.41421000
    74  H          0.57778500       0.35470000       0.08579000
    75  H          0.07778500       0.64530000       0.58579000
    76  H          0.42221500       0.64530000       0.91421000
    77  H          0.98951700       0.16760000       0.44899000
    78  H          0.51048300       0.16760000       0.05101000
    79  H          0.01048300       0.83240000       0.55101000
    80  H          0.48951700       0.83240000       0.94899000
    81  C          0.94229170       0.03037000       0.74337110
    82  C          0.55770830       0.03037000       0.75662890
    83  C          0.05770830      -0.03037000       0.25662890
    84  C          0.44229170      -0.03037000       0.24337110
    85  C          0.86519160       0.02607000       0.76768110
    86  C          0.63480840       0.02607000       0.73231890
    87  C          0.13480840      -0.02607000       0.23231890
    88  C          0.36519160      -0.02607000       0.26768110
    89  C          0.79289140       0.12116000       0.73779800
    90  C          0.70710860       0.12116000       0.76220200
    91  C          0.20710860       0.87884000       0.26220200
    92  C          0.29289140       0.87884000       0.23779800
    93  C          0.80352170       0.21607000       0.68394900
    94  C          0.69647830       0.21607000       0.81605100
    95  C          0.19647830       0.78393000       0.31605100
    96  C          0.30352170       0.78393000       0.18394900
    97  C          0.88334170       0.21398000       0.66293110
    98  C          0.61665830       0.21398000       0.83706890
    99  C          0.11665830       0.78602000       0.33706890
   100  C          0.38334170       0.78602000       0.16293110
   101  N          0.95332130       0.12276000       0.69144800
   102  N          0.54667870       0.12276000       0.80855200
   103  N          0.04667870       0.87724000       0.30855200
   104  N          0.45332130       0.87724000       0.19144800
   105  H         -0.00788400      -0.02360000       0.76319000
   106  H          0.50788400      -0.02360000       0.73681000
   107  H          0.00788400       0.02360000       0.23681000
   108  H          0.49211600       0.02360000       0.26319000
   109  H          0.85961500      -0.03460000       0.80361100
   110  H          0.64038500      -0.03460000       0.69638900
   111  H          0.14038500       0.03460000       0.19638900
   112  H          0.35961500       0.03460000       0.30361100
   113  H          0.75671400       0.28460000       0.66069000
   114  H          0.74328600       0.28460000       0.83931000
   115  H          0.24328600       0.71540000       0.33931000
   116  H          0.25671400       0.71540000       0.16069000
   117  H          0.89281500       0.27660000       0.62531100
   118  H          0.60718500       0.27660000       0.87468900
   119  H          0.10718500       0.72340000       0.37468900
   120  H          0.39281500       0.72340000       0.12531100
   121  C          0.15282000       0.42401000       0.70353130
   122  C          0.34718000       0.42401000       0.79646870
   123  C          0.84718000       0.57599000       0.29646870
   124  C          0.65282000       0.57599000       0.20353130
   125  O          0.11383120       0.31065000       0.65399600
   126  O          0.38616880       0.31065000       0.84600400
   127  O          0.88616880       0.68935000       0.34600400
   128  O          0.61383120       0.68935000       0.15399600
   129  H          0.05820000       0.22680000       0.66181200
   130  H          0.44180000       0.22680000       0.83818800
   131  H          0.94180000       0.77320000       0.33818800
   132  H          0.55820000       0.77320000       0.16181200
   133  H          0.20230000       0.54111000       0.69751700
   134  H          0.29770000       0.54111000       0.80248300
   135  H          0.79770000       0.45889000       0.30248300
   136  H          0.70230000       0.45889000       0.19751700
   137  H          0.14420000       0.26611000       0.73201700
   138  H          0.35580000       0.26611000       0.76798300
   139  H          0.85580000       0.73389000       0.26798300
   140  H          0.64420000       0.73389000       0.23201700
   141  H          0.11530000       0.59715000       0.72220000
   142  H          0.38470000       0.59715000       0.77780000
   143  H          0.88470000       0.40285000       0.27780000
   144  H          0.61530000       0.40285000       0.22220000
