data_AKENEK
_symmetry_space_group_name_H-M    'P1'
_symmetry_Int_Tables_number       1
loop_
_symmetry_equiv_pos_site_id
_symmetry_equiv_pos_as_xyz
1 x,y,z
_cell_length_a                   9.84076
_cell_length_b                   17.94431
_cell_length_c                   10.99026
_cell_angle_alpha                90.0
_cell_angle_beta                 97.8395
_cell_angle_gamma                90.0
loop_
_atom_site_label
_atom_site_type_symbol
_atom_site_fract_x
_atom_site_fract_y
_atom_site_fract_z
     1  N          0.52583130       0.64458700       0.64174130
     2  N          0.97416870       0.14458700       0.85825870
     3  N          0.47416870       0.35541300       0.35825870
     4  N          0.02583130       0.85541300       0.14174130
     5  C          0.42350170       0.68120900       0.68671160
     6  C          0.07649830       0.18120900       0.81328840
     7  C          0.57649830       0.31879100       0.31328840
     8  C          0.92350170       0.81879100       0.18671160
     9  C          0.41884180       0.75887900       0.69434170
    10  C          0.08115820       0.25887900       0.80565830
    11  C          0.58115820       0.24112100       0.30565830
    12  C          0.91884180       0.74112100       0.19434170
    13  H          0.34730000       0.78350000       0.72840000
    14  H          0.15270000       0.28350000       0.77160000
    15  H          0.65270000       0.21650000       0.27160000
    16  H          0.84730000       0.71650000       0.22840000
    17  C          0.52252180       0.79852100       0.65029170
    18  C          0.97747820       0.29852100       0.84970830
    19  C          0.47747820       0.20147900       0.34970830
    20  C          0.02252180       0.70147900       0.15029170
    21  H          0.52170000       0.85140000       0.65370000
    22  H          0.97830000       0.35140000       0.84630000
    23  H          0.47830000       0.14860000       0.34630000
    24  H          0.02170000       0.64860000       0.15370000
    25  C          0.62753180       0.76271900       0.60124170
    26  C          0.87246820       0.26271900       0.89875830
    27  C          0.37246820       0.23728100       0.39875830
    28  C          0.12753180       0.73728100       0.10124170
    29  H          0.69730000       0.79000000       0.56910000
    30  H          0.80270000       0.29000000       0.93090000
    31  H          0.30270000       0.21000000       0.43090000
    32  H          0.19730000       0.71000000       0.06910000
    33  C          0.62646160       0.68500900       0.60097160
    34  C          0.87353840       0.18500900       0.89902840
    35  C          0.37353840       0.31499100       0.39902840
    36  C          0.12646160       0.81499100       0.10097160
    37  N          0.32474150       0.63422800       0.72663150
    38  N          0.17525850       0.13422800       0.77336850
    39  N          0.67525850       0.36577200       0.27336850
    40  N          0.82474150       0.86577200       0.22663150
    41  H          0.33720000       0.58271200       0.71931800
    42  H          0.16280000       0.08271200       0.78068200
    43  H          0.66280000       0.41728800       0.28068200
    44  H          0.83720000       0.91728800       0.21931800
    45  C          0.20514180       0.65339100       0.77066190
    46  C          0.29485820       0.15339100       0.72933810
    47  C          0.79485820       0.34660900       0.22933810
    48  C          0.70514180       0.84660900       0.27066190
    49  C          0.11866190       0.58871110       0.80092000
    50  C          0.38133810       0.08871110       0.69908000
    51  C          0.88133810       0.41128890       0.19908000
    52  C          0.61866190       0.91128890       0.30092000
    53  H          0.09350000       0.59540000       0.88350000
    54  H          0.40650000       0.09540000       0.61650000
    55  H          0.90650000       0.40460000       0.11650000
    56  H          0.59350000       0.90460000       0.38350000
    57  H          0.17080000       0.54240000       0.79800000
    58  H          0.32920000       0.04240000       0.70200000
    59  H          0.82920000       0.45760000       0.20200000
    60  H          0.67080000       0.95760000       0.29800000
    61  H          0.03530000       0.58630000       0.74100000
    62  H          0.46470000       0.08630000       0.75900000
    63  H          0.96470000       0.41370000       0.25900000
    64  H          0.53530000       0.91370000       0.24100000
    65  O          0.17032160       0.71770800       0.78528180
    66  O          0.32967840       0.21770800       0.71471820
    67  O          0.82967840       0.28229200       0.21471820
    68  O          0.67032160       0.78229200       0.28528180
    69  N          0.72765140       0.64156800       0.55533140
    70  N          0.77234860       0.14156800       0.94466860
    71  N          0.27234860       0.35843200       0.44466860
    72  N          0.22765140       0.85843200       0.05533140
    73  H          0.71320000       0.59361300       0.54820000
    74  H          0.78680000       0.09361300       0.95180000
    75  H          0.28680000       0.40638700       0.45180000
    76  H          0.21320000       0.90638700       0.04820000
    77  C          0.85420170       0.66453100       0.52916180
    78  C          0.64579830       0.16453100       0.97083820
    79  C          0.14579830       0.33546900       0.47083820
    80  C          0.35420170       0.83546900       0.02916180
    81  C          0.93422000       0.60583110       0.47202000
    82  C          0.56578000       0.10583110       0.02798000
    83  C          0.06578000       0.39416890       0.52798000
    84  C          0.43422000       0.89416890       0.97202000
    85  H          0.89420000       0.59840000       0.38620000
    86  H          0.60580000       0.09840000       0.11380000
    87  H          0.10580000       0.40160000       0.61380000
    88  H          0.39420000       0.90160000       0.88620000
    89  H          0.93060000       0.55890000       0.51710000
    90  H          0.56940000       0.05890000       0.98290000
    91  H          0.06940000       0.44110000       0.48290000
    92  H          0.43060000       0.94110000       0.01710000
    93  H          0.02980000       0.62190000       0.47540000
    94  H          0.47020000       0.12190000       0.02460000
    95  H          0.97020000       0.37810000       0.52460000
    96  H          0.52980000       0.87810000       0.97540000
    97  O          0.89694150       0.72777800       0.55051170
    98  O          0.60305850       0.22777800       0.94948830
    99  O          0.10305850       0.27222200       0.44948830
   100  O          0.39694150       0.77222200       0.05051170
   101  N          0.54265140       0.48520800       0.65571140
   102  N          0.95734860       0.98520800       0.84428860
   103  N          0.45734860       0.51479200       0.34428860
   104  N          0.04265140       0.01479200       0.15571140
   105  H          0.53720000       0.53391300       0.64331900
   106  H          0.96280000       0.03391300       0.85668100
   107  H          0.46280000       0.46608700       0.35668100
   108  H          0.03720000       0.96608700       0.14331900
   109  C          0.64290170       0.44362800       0.60760160
   110  C          0.85709830       0.94362800       0.89239840
   111  C          0.35709830       0.55637200       0.39239840
   112  C          0.14290170       0.05637200       0.10760160
   113  O          0.72697120       0.46849600       0.54699120
   114  O          0.77302880       0.96849600       0.95300880
   115  O          0.27302880       0.53150400       0.45300880
   116  O          0.22697120       0.03150400       0.04699120
   117  N          0.62300140       0.37095700       0.64226140
   118  N          0.87699860       0.87095700       0.85773860
   119  N          0.37699860       0.62904300       0.35773860
   120  N          0.12300140       0.12904300       0.14226140
   121  C          0.50642160       0.36282800       0.71095160
   122  C         -0.00642160       0.86282800       0.78904840
   123  C          0.49357840       0.63717200       0.28904840
   124  C          0.00642160       0.13717200       0.21095160
   125  H          0.53540000       0.34280000       0.79440000
   126  H          0.96460000       0.84280000       0.70560000
   127  H          0.46460000       0.65720000       0.20560000
   128  H          0.03540000       0.15720000       0.29440000
   129  H          0.43460000       0.33020000       0.66730000
   130  H          0.06540000       0.83020000       0.83270000
   131  H          0.56540000       0.66980000       0.33270000
   132  H          0.93460000       0.16980000       0.16730000
   133  C          0.45734170       0.44286900       0.71532160
   134  C          0.04265830       0.94286900       0.78467840
   135  C          0.54265830       0.55713100       0.28467840
   136  C          0.95734170       0.05713100       0.21532160
   137  O          0.35997130       0.46560700       0.76174130
   138  O          0.14002870       0.96560700       0.73825870
   139  O          0.64002870       0.53439300       0.23825870
   140  O          0.85997130       0.03439300       0.26174130
   141  N          0.70088140       0.31481700       0.60336130
   142  N          0.79911860       0.81481700       0.89663870
   143  N          0.29911860       0.68518300       0.39663870
   144  N          0.20088140       0.18518300       0.10336130
   145  C          0.66610160       0.24868900       0.63244160
   146  C          0.83389840       0.74868900       0.86755840
   147  C          0.33389840       0.75131100       0.36755840
   148  C          0.16610160       0.25131100       0.13244160
   149  H          0.59060000       0.24110000       0.67640000
   150  H          0.90940000       0.74110000       0.82360000
   151  H          0.40940000       0.75890000       0.32360000
   152  H          0.09060000       0.25890000       0.17640000
   153  C          0.74453160       0.18599800       0.59668160
   154  C          0.75546840       0.68599800       0.90331840
   155  C          0.25546840       0.81400200       0.40331840
   156  C          0.24453160       0.31400200       0.09668160
   157  O          0.69141110       0.11784600       0.62218110
   158  O          0.80858890       0.61784600       0.87781890
   159  O          0.30858890       0.88215400       0.37781890
   160  O          0.19141110       0.38215400       0.12218110
   161  C          0.77851170       0.06735800       0.58329170
   162  C          0.72148830       0.56735800       0.91670830
   163  C          0.22148830       0.93264200       0.41670830
   164  C          0.27851170       0.43264200       0.08329170
   165  C          0.88363180       0.09948900       0.53549170
   166  C          0.61636820       0.59948900       0.96450830
   167  C          0.11636820       0.90051100       0.46450830
   168  C          0.38363180       0.40051100       0.03549170
   169  H          0.95680000       0.07520000       0.50340000
   170  H          0.54320000       0.57520000      -0.00340000
   171  H          0.04320000       0.92480000       0.49660000
   172  H          0.45680000       0.42480000       0.00340000
   173  C          0.86101170       0.17743900       0.54369170
   174  C          0.63898830       0.67743900       0.95630830
   175  C          0.13898830       0.82256100       0.45630830
   176  C          0.36101170       0.32256100       0.04369170
   177  H          0.91630000       0.21600000       0.51740000
   178  H          0.58370000       0.71600000       0.98260000
   179  H          0.08370000       0.78400000       0.48260000
   180  H          0.41630000       0.28400000       0.01740000
   181  N          0.74296150       0.99141200       0.59716150
   182  N          0.75703850       0.49141200       0.90283850
   183  N          0.25703850       0.00858800       0.40283850
   184  N          0.24296150       0.50858800       0.09716150
   185  O          0.63803150       0.97678300       0.64050170
   186  O          0.86196850       0.47678300       0.85949830
   187  O          0.36196850       0.02321700       0.35949830
   188  O          0.13803150       0.52321700       0.14050170
   189  O          0.82215130       0.94383400       0.56451130
   190  O          0.67784870       0.44383400       0.93548870
   191  O          0.17784870       0.05616600       0.43548870
   192  O          0.32215130       0.55616600       0.06451130
