data_AKEZEW
_symmetry_space_group_name_H-M    'P1'
_symmetry_Int_Tables_number       1
loop_
_symmetry_equiv_pos_site_id
_symmetry_equiv_pos_as_xyz
1 x,y,z
_cell_length_a                   7.8114
_cell_length_b                   17.5031
_cell_length_c                   15.8929
_cell_angle_alpha                90.0
_cell_angle_beta                 103.30517
_cell_angle_gamma                90.0
loop_
_atom_site_label
_atom_site_type_symbol
_atom_site_fract_x
_atom_site_fract_y
_atom_site_fract_z
     1  S          0.71162200       0.63439300       0.46309400
     2  S          0.78837800       0.13439300       0.03690600
     3  S          0.28837800       0.36560700       0.53690600
     4  S          0.21162200       0.86560700       0.96309400
     5  S          0.95226100       0.64674400       0.31660400
     6  S          0.54773900       0.14674400       0.18339600
     7  S          0.04773900       0.35325600       0.68339600
     8  S          0.45226100       0.85325600       0.81660400
     9  O          0.09322000       0.00041800       0.75637100
    10  O          0.40678000       0.50041800       0.74362900
    11  O          0.90678000      -0.00041800       0.24362900
    12  O          0.59322000       0.49958200       0.25637100
    13  N          0.87747000       0.58031100       0.46378120
    14  N          0.62253000       0.08031100       0.03621880
    15  N          0.12253000       0.41968900       0.53621880
    16  N          0.37747000       0.91968900       0.96378120
    17  O          0.63448000       0.66530900       0.37768100
    18  O          0.86552000       0.16530900       0.12231900
    19  O          0.36552000       0.33469100       0.62231900
    20  O          0.13448000       0.83469100       0.87768100
    21  O         -0.01333000      -0.00560890       0.60986120
    22  O          0.51333000       0.49439110       0.89013880
    23  O          0.01333000       0.00560890       0.39013880
    24  O          0.48667000       0.50560890       0.10986120
    25  O          0.59988000       0.59171100       0.50589110
    26  O          0.90012000       0.09171100      -0.00589110
    27  O          0.40012000       0.40828900       0.49410890
    28  O          0.09988000       0.90828900       0.00589110
    29  C          0.97253000       0.12782000       0.72353000
    30  C          0.52747000       0.62782000       0.77647000
    31  C          0.02747000       0.87218000       0.27647000
    32  C          0.47253000       0.37218000       0.22353000
    33  H          0.93400000       0.11910000       0.66250000
    34  H          0.56600000       0.61910000       0.83750000
    35  H          0.06600000       0.88090000       0.33750000
    36  H          0.43400000       0.38090000       0.16250000
    37  H         -0.00330000       0.18110000       0.73400000
    38  H          0.50330000       0.68110000       0.76600000
    39  H          0.00330000       0.81890000       0.26600000
    40  H          0.49670000       0.31890000       0.23400000
    41  H          0.88200000       0.11210000       0.75170000
    42  H          0.61800000       0.61210000       0.74830000
    43  H          0.11800000       0.88790000       0.24830000
    44  H          0.38200000       0.38790000       0.25170000
    45  C          0.28257000       0.09372000       0.71052000
    46  C          0.21743000       0.59372000       0.78948000
    47  C          0.71743000       0.90628000       0.28948000
    48  C          0.78257000       0.40628000       0.21052000
    49  H          0.38430000       0.06460000       0.73770000
    50  H          0.11570000       0.56460000       0.76230000
    51  H          0.61570000       0.93540000       0.26230000
    52  H          0.88430000       0.43540000       0.23770000
    53  H          0.31260000       0.14690000       0.71140000
    54  H          0.18740000       0.64690000       0.78860000
    55  H          0.68740000       0.85310000       0.28860000
    56  H          0.81260000       0.35310000       0.21140000
    57  H          0.24160000       0.07710000       0.65170000
    58  H          0.25840000       0.57710000       0.84830000
    59  H          0.75840000       0.92290000       0.34830000
    60  H          0.74160000       0.42290000       0.15170000
    61  C          0.13854000       0.08189130       0.75896170
    62  C          0.36146000       0.58189130       0.74103830
    63  C          0.86146000       0.91810870       0.24103830
    64  C          0.63854000       0.41810870       0.25896170
    65  C          0.02484000       0.96523140       0.68011150
    66  C          0.47516000       0.46523140       0.81988850
    67  C          0.97516000       0.03476860       0.31988850
    68  C          0.52484000       0.53476860       0.18011150
    69  N          0.00473000       0.89072100       0.69721110
    70  N          0.49527000       0.39072100       0.80278890
    71  N         -0.00473000       0.10927900       0.30278890
    72  N          0.50473000       0.60927900       0.19721110
    73  H          0.03810000       0.87720000       0.75050000
    74  H          0.46190000       0.37720000       0.74950000
    75  H          0.96190000       0.12280000       0.24950000
    76  H          0.53810000       0.62280000       0.25050000
    77  C          0.93577000       0.83270120       0.63812130
    78  C          0.56423000       0.33270120       0.86187870
    79  C          0.06423000       0.16729880       0.36187870
    80  C          0.43577000       0.66729880       0.13812130
    81  C          0.91737000       0.76149130       0.67259140
    82  C          0.58263000       0.26149130       0.82740860
    83  C          0.08263000       0.23850870       0.32740860
    84  C          0.41737000       0.73850870       0.17259140
    85  H          0.95140000       0.75400000       0.73200000
    86  H          0.54860000       0.25400000       0.76800000
    87  H          0.04860000       0.24600000       0.26800000
    88  H          0.45140000       0.74600000       0.23200000
    89  C          0.84927000       0.70191130       0.61948140
    90  C          0.65073000       0.20191130       0.88051860
    91  C          0.15073000       0.29808870       0.38051860
    92  C          0.34927000       0.79808870       0.11948140
    93  H          0.83720000       0.65420000       0.64330000
    94  H          0.66280000       0.15420000       0.85670000
    95  H          0.16280000       0.34580000       0.35670000
    96  H          0.33720000       0.84580000       0.14330000
    97  C          0.79807000       0.71180120       0.53041130
    98  C          0.70193000       0.21180120       0.96958870
    99  C          0.20193000       0.28819880       0.46958870
   100  C          0.29807000       0.78819880       0.03041130
   101  C         -0.02173000       0.58938120       0.40788150
   102  C          0.52173000       0.08938120       0.09211850
   103  C          0.02173000       0.41061880       0.59211850
   104  C          0.47827000       0.91061880       0.90788150
   105  N          0.12713000       0.54800110       0.41620130
   106  N          0.37287000       0.04800110       0.08379870
   107  N          0.87287000       0.45199890       0.58379870
   108  N          0.62713000       0.95199890       0.91620130
   109  H          0.16070000       0.51580000       0.45760000
   110  H          0.33930000       0.01580000       0.04240000
   111  H          0.83930000       0.48420000       0.54240000
   112  H          0.66070000       0.98420000       0.95760000
   113  C          0.22193000       0.56063160       0.35420170
   114  C          0.27807000       0.06063160       0.14579830
   115  C          0.77807000       0.43936840       0.64579830
   116  C          0.72193000       0.93936840       0.85420170
   117  H          0.32680000       0.53590000       0.35320000
   118  H          0.17320000       0.03590000       0.14680000
   119  H          0.67320000       0.46410000       0.64680000
   120  H          0.82680000       0.96410000       0.85320000
   121  C          0.14654000       0.61199180       0.29622000
   122  C          0.35346000       0.11199180       0.20378000
   123  C          0.85346000       0.38800820       0.70378000
   124  C          0.64654000       0.88800820       0.79622000
   125  H          0.19240000       0.62760000       0.24990000
   126  H          0.30760000       0.12760000       0.25010000
   127  H          0.80760000       0.37240000       0.75010000
   128  H          0.69240000       0.87240000       0.74990000
   129  C          0.88457000       0.84304130       0.54868150
   130  C          0.61543000       0.34304130       0.95131850
   131  C          0.11543000       0.15695870       0.45131850
   132  C          0.38457000       0.65695870       0.04868150
   133  H          0.89670000       0.89070000       0.52480000
   134  H          0.60330000       0.39070000       0.97520000
   135  H          0.10330000       0.10930000       0.47520000
   136  H          0.39670000       0.60930000       0.02480000
   137  C          0.81617000       0.78245130       0.49567150
   138  C          0.68383000       0.28245130       0.00432850
   139  C          0.18383000       0.21754870       0.50432850
   140  C          0.31617000       0.71754870      -0.00432850
   141  H          0.78220000       0.78950000       0.43620000
   142  H          0.71780000       0.28950000       0.06380000
   143  H          0.21780000       0.21050000       0.56380000
   144  H          0.28220000       0.71050000       0.93620000
   145  C          0.20824000       0.09676150       0.85507170
   146  C          0.29176000       0.59676150       0.64492830
   147  C          0.79176000       0.90323850       0.14492830
   148  C          0.70824000       0.40323850       0.35507170
   149  H          0.11900000       0.08440000       0.88550000
   150  H          0.38100000       0.58440000       0.61450000
   151  H          0.88100000       0.91560000       0.11450000
   152  H          0.61900000       0.41560000       0.38550000
   153  H          0.23960000       0.14970000       0.86400000
   154  H          0.26040000       0.64970000       0.63600000
   155  H          0.76040000       0.85030000       0.13600000
   156  H          0.73960000       0.35030000       0.36400000
   157  H          0.31010000       0.06560000       0.87640000
   158  H          0.18990000       0.56560000       0.62360000
   159  H          0.68990000       0.93440000       0.12360000
   160  H          0.81010000       0.43440000       0.37640000
   161  O          0.42994000       0.79797160       0.62932170
   162  O          0.07006000       0.29797160       0.87067830
   163  O          0.57006000       0.20202840       0.37067830
   164  O          0.92994000       0.70202840       0.12932170
   165  C          0.38114000       0.82262000       0.55642000
   166  C          0.11886000       0.32262000       0.94358000
   167  C          0.61886000       0.17738000       0.44358000
   168  C          0.88114000       0.67738000       0.05642000
   169  C          0.31235000       0.76972000       0.48302000
   170  C          0.18765000       0.26972000       0.01698000
   171  C          0.68765000       0.23028000       0.51698000
   172  C          0.81235000       0.73028000       0.98302000
   173  H          0.32830000       0.71780000       0.50290000
   174  H          0.17170000       0.21780000      -0.00290000
   175  H          0.67170000       0.28220000       0.49710000
   176  H          0.82830000       0.78220000       0.00290000
   177  H          0.37490000       0.77780000       0.43840000
   178  H          0.12510000       0.27780000       0.06160000
   179  H          0.62510000       0.22220000       0.56160000
   180  H          0.87490000       0.72220000       0.93840000
   181  H          0.18930000       0.77940000       0.46040000
   182  H          0.31070000       0.27940000       0.03960000
   183  H          0.81070000       0.22060000       0.53960000
   184  H          0.68930000       0.72060000       0.96040000
   185  C          0.38857000       0.90413000       0.53674000
   186  C          0.11143000       0.40413000       0.96326000
   187  C          0.61143000       0.09587000       0.46326000
   188  C          0.88857000       0.59587000       0.03674000
   189  H          0.27120000       0.92390000       0.51880000
   190  H          0.22880000       0.42390000       0.98120000
   191  H          0.72880000       0.07610000       0.48120000
   192  H          0.77120000       0.57610000       0.01880000
   193  H          0.44900000       0.91090000       0.49100000
   194  H          0.05100000       0.41090000       0.00900000
   195  H          0.55100000       0.08910000       0.50900000
   196  H          0.94900000       0.58910000      -0.00900000
   197  H          0.45030000       0.93090000       0.58730000
   198  H          0.04970000       0.43090000       0.91270000
   199  H          0.54970000       0.06910000       0.41270000
   200  H          0.95030000       0.56910000       0.08730000
