data_AKINEP
_symmetry_space_group_name_H-M    'P1'
_symmetry_Int_Tables_number       1
loop_
_symmetry_equiv_pos_site_id
_symmetry_equiv_pos_as_xyz
1 x,y,z
_cell_length_a                   10.58307
_cell_length_b                   10.98869
_cell_length_c                   12.011515
_cell_angle_alpha                69.1174
_cell_angle_beta                 85.7585
_cell_angle_gamma                82.8183
loop_
_atom_site_label
_atom_site_type_symbol
_atom_site_fract_x
_atom_site_fract_y
_atom_site_fract_z
     1  P          0.62560120       0.81091870       0.78292110
     2  P          0.37439880       0.18908130       0.21707890
     3  F          0.75403000       0.74517000       0.73973000
     4  F          0.24597000       0.25483000       0.26027000
     5  F          0.69903000       0.93077000       0.78153000
     6  F          0.30097000       0.06923000       0.21847000
     7  F          0.49773000       0.87907000       0.82593000
     8  F          0.50227000       0.12093000       0.17407000
     9  F          0.55163000       0.69327000       0.78583000
    10  F          0.44837000       0.30673000       0.21417000
    11  F          0.58853000       0.88907000       0.64713000
    12  F          0.41147000       0.11093000       0.35287000
    13  F          0.66453000       0.73597000       0.91792000
    14  F          0.33547000       0.26403000       0.08208000
    15  P          0.17671120       0.51086140       0.70310110
    16  P          0.82328880       0.48913860       0.29689890
    17  F          0.31433000       0.51113000       0.63953000
    18  F          0.68567000       0.48887000       0.36047000
    19  F          0.17353000       0.66463000       0.67583000
    20  F          0.82647000       0.33537000       0.32417000
    21  F          0.03893000       0.51334000       0.76373000
    22  F          0.96107000       0.48666000       0.23627000
    23  F          0.18054000       0.35873000       0.72673000
    24  F          0.81946000       0.64127000       0.27327000
    25  F          0.11463000       0.54133000       0.57833000
    26  F          0.88537000       0.45867000       0.42167000
    27  F          0.23794000       0.48094000       0.82703000
    28  F          0.76206000       0.51906000       0.17297000
    29  N          0.89413000       0.16074000       0.18373000
    30  N          0.10587000       0.83926000       0.81627000
    31  N          0.79934000       0.32354000       0.04553000
    32  N          0.20066000       0.67646000       0.95447000
    33  N          0.48364000       0.23674000       0.55483000
    34  N          0.51636000       0.76326000       0.44517000
    35  N          0.28714000       0.20044000       0.55763000
    36  N          0.71286000       0.79956000       0.44237000
    37  N          0.18974000       0.02034000       0.67983000
    38  N          0.81026000       0.97966000       0.32017000
    39  C          0.78114000       0.21525000       0.13764000
    40  C          0.21886000       0.78475000       0.86236000
    41  H          0.70140000       0.18240000       0.16580000
    42  H          0.29860000       0.81760000       0.83420000
    43  C          0.98775000       0.23785000       0.11724000
    44  C          0.01225000       0.76215000       0.88276000
    45  H          0.07680000       0.22260000       0.12960000
    46  H          0.92320000       0.77740000       0.87040000
    47  C          0.92625000       0.33745000       0.03245000
    48  C          0.07375000       0.66255000       0.96755000
    49  H          0.96460000       0.40660000       0.97270000
    50  H          0.03540000       0.59340000       0.02730000
    51  C          0.69705000       0.41105000       0.96905000
    52  C          0.30295000       0.58895000       0.03095000
    53  H          0.72140000       0.50140000       0.93640000
    54  H          0.27860000       0.49860000       0.06360000
    55  H          0.61740000       0.41160000       0.01780000
    56  H          0.38260000       0.58840000       0.98220000
    57  C          0.67365000       0.36695000       0.86784000
    58  C          0.32635000       0.63305000       0.13216000
    59  C          0.56745000       0.30356000       0.87185000
    60  C          0.43255000       0.69644000       0.12815000
    61  H          0.50820000       0.29030000       0.93730000
    62  H          0.49180000       0.70970000       0.06270000
    63  C          0.54715000       0.25936000       0.78085000
    64  C          0.45285000       0.74064000       0.21915000
    65  H          0.47310000       0.21730000       0.78400000
    66  H          0.52690000       0.78270000       0.21600000
    67  C          0.63254000       0.27545000       0.68574000
    68  C          0.36746000       0.72455000       0.31426000
    69  C          0.73935000       0.33965000       0.68094000
    70  C          0.26065000       0.66035000       0.31906000
    71  H          0.79850000       0.35350000       0.61520000
    72  H          0.20150000       0.64650000       0.38480000
    73  C          0.75815000       0.38285000       0.77265000
    74  C          0.24185000       0.61715000       0.22735000
    75  H          0.83210000       0.42490000       0.76970000
    76  H          0.16790000       0.57510000       0.23030000
    77  C          0.61684000       0.22185000       0.58814000
    78  C          0.38316000       0.77815000       0.41186000
    79  H          0.66860000       0.26810000       0.51690000
    80  H          0.33140000       0.73190000       0.48310000
    81  H          0.64940000       0.12780000       0.61540000
    82  H          0.35060000       0.87220000       0.38460000
    83  C          0.40094000       0.15035000       0.60464000
    84  C          0.59906000       0.84965000       0.39536000
    85  H          0.41940000       0.06650000       0.66390000
    86  H          0.58060000       0.93350000       0.33610000
    87  C          0.29915000       0.32485000       0.47465000
    88  C          0.70085000       0.67515000       0.52535000
    89  H          0.23340000       0.38290000       0.42730000
    90  H          0.76660000       0.61710000       0.57270000
    91  C          0.42015000       0.34725000       0.47364000
    92  C          0.57985000       0.65275000       0.52636000
    93  H          0.45630000       0.42480000       0.42600000
    94  H          0.54370000       0.57520000       0.57400000
    95  C          0.17574000       0.13465000       0.58904000
    96  C          0.82426000       0.86535000       0.41096000
    97  C          0.06475000       0.18675000       0.52894000
    98  C          0.93525000       0.81325000       0.47106000
    99  H          0.05960000       0.26780000       0.46410000
   100  H          0.94040000       0.73220000       0.53590000
   101  C          0.96125000       0.11585000       0.56704000
   102  C          0.03875000       0.88415000       0.43296000
   103  H          0.88260000       0.14840000       0.52830000
   104  H          0.11740000       0.85160000       0.47170000
   105  C          0.97115000      -0.00295000       0.66184000
   106  C          0.02885000       0.00295000       0.33816000
   107  H          0.90120000       0.94650000       0.68900000
   108  H          0.09880000       0.05350000       0.31100000
   109  C          0.08744000       0.95705000       0.71384000
   110  C          0.91256000       0.04295000       0.28616000
   111  N          0.23795000       0.09666000       0.92745000
   112  N          0.76205000       0.90334000       0.07255000
   113  C          0.11815000       0.04975000       0.96494000
   114  C          0.88185000       0.95025000       0.03506000
   115  C          0.01035000       0.10775000       0.89894000
   116  C         -0.01035000       0.89225000       0.10106000
   117  H          0.01670000       0.18240000       0.82860000
   118  H          0.98330000       0.81760000       0.17140000
   119  C          0.89425000       0.05885000       0.93324000
   120  C          0.10575000       0.94115000       0.06676000
   121  H          0.82200000       0.10020000       0.88640000
   122  H          0.17800000       0.89980000       0.11360000
   123  H          0.29460000       0.08160000       0.97960000
   124  H          0.70540000       0.91840000       0.02040000
   125  H          0.24570000       0.19180000       0.88070000
   126  H          0.75430000       0.80820000       0.11930000
   127  H          0.70540000       0.91840000       0.02160000
   128  H          0.29460000       0.08160000       0.97840000
   129  H          0.75430000       0.80820000       0.12070000
   130  H          0.24570000       0.19180000       0.87930000
