data_AKIXOJ
_symmetry_space_group_name_H-M    'P1'
_symmetry_Int_Tables_number       1
loop_
_symmetry_equiv_pos_site_id
_symmetry_equiv_pos_as_xyz
1 x,y,z
_cell_length_a                   5.92212
_cell_length_b                   34.172014
_cell_length_c                   10.20224
_cell_angle_alpha                90.0
_cell_angle_beta                 98.11001
_cell_angle_gamma                90.0
loop_
_atom_site_label
_atom_site_type_symbol
_atom_site_fract_x
_atom_site_fract_y
_atom_site_fract_z
     1  C          0.39386000       0.14040110       0.20694000
     2  C          0.10614000       0.64040110       0.29306000
     3  C          0.60614000       0.85959890       0.79306000
     4  C          0.89386000       0.35959890       0.70694000
     5  C          0.31767000       0.09666120       0.36504000
     6  C          0.18233000       0.59666120       0.13496000
     7  C          0.68233000       0.90333880       0.63496000
     8  C          0.81767000       0.40333880       0.86504000
     9  C          0.50896000       0.12392120       0.42783000
    10  C         -0.00896000       0.62392120       0.07217000
    11  C          0.49104000       0.87607880       0.57217000
    12  C          0.00896000       0.37607880       0.92783000
    13  C          0.42448000       0.14716140       0.53854000
    14  C          0.07552000       0.64716140       0.96146000
    15  C          0.57552000       0.85283860       0.46146000
    16  C          0.92448000       0.35283860       0.03854000
    17  H          0.53380000       0.16700000       0.56920000
    18  H          0.96620000       0.66700000       0.93080000
    19  H          0.46620000       0.83300000       0.43080000
    20  H          0.03380000       0.33300000       0.06920000
    21  H          0.40480000       0.12990000       0.61030000
    22  H          0.09520000       0.62990000       0.88970000
    23  H          0.59520000       0.87010000       0.38970000
    24  H          0.90480000       0.37010000       0.11030000
    25  H          0.28110000       0.15920000       0.50570000
    26  H          0.21890000       0.65920000      -0.00570000
    27  H          0.71890000       0.84080000       0.49430000
    28  H          0.78110000       0.34080000       0.00570000
    29  C          0.72047000       0.10013140       0.47974000
    30  C          0.77953000       0.60013140       0.02026000
    31  C          0.27953000       0.89986860       0.52026000
    32  C          0.22047000       0.39986860       0.97974000
    33  H          0.77100000       0.08600000       0.40800000
    34  H          0.72900000       0.58600000       0.09200000
    35  H          0.22900000       0.91400000       0.59200000
    36  H          0.27100000       0.41400000       0.90800000
    37  H          0.68410000       0.08200000       0.54560000
    38  H          0.81590000       0.58200000       0.95440000
    39  H          0.31590000       0.91800000       0.45440000
    40  H          0.18410000       0.41800000       0.04560000
    41  H          0.83920000       0.11740000       0.51840000
    42  H          0.66080000       0.61740000       0.98160000
    43  H          0.16080000       0.88260000       0.48160000
    44  H          0.33920000       0.38260000       0.01840000
    45  N          0.25646000       0.10863100       0.23753000
    46  N          0.24354000       0.60863100       0.26247000
    47  N          0.74354000       0.89136900       0.76247000
    48  N          0.75646000       0.39136900       0.73753000
    49  N          0.54196000       0.14864100       0.31543000
    50  N          0.95804000       0.64864100       0.18457000
    51  N          0.45804000       0.85135900       0.68457000
    52  N          0.04196000       0.35135900       0.81543000
    53  O          0.37385000       0.15599800       0.09812000
    54  O          0.12615000       0.65599800       0.40188000
    55  O          0.62615000       0.84400200       0.90188000
    56  O          0.87385000       0.34400200       0.59812000
    57  O          0.23705000       0.06939900       0.41993000
    58  O          0.26295000       0.56939900       0.08007000
    59  O          0.76295000       0.93060100       0.58007000
    60  O          0.73705000       0.43060100       0.91993000
    61  I         -0.01582400       0.08526200       0.10431200
    62  I          0.51582400       0.58526200       0.39568800
    63  I          0.01582400       0.91473800       0.89568800
    64  I          0.48417600       0.41473800       0.60431200
    65  I          0.78942400       0.19275200       0.31697200
    66  I          0.71057600       0.69275200       0.18302800
    67  I          0.21057600       0.80724800       0.68302800
    68  I          0.28942400       0.30724800       0.81697200
    69  C          0.48943000       0.07516130       0.90336000
    70  C          0.01057000       0.57516130       0.59664000
    71  C          0.51057000       0.92483870       0.09664000
    72  C         -0.01057000       0.42483870       0.40336000
    73  H          0.46150000       0.09900000       0.94220000
    74  H          0.03850000       0.59900000       0.55780000
    75  H          0.53850000       0.90100000       0.05780000
    76  H          0.96150000       0.40100000       0.44220000
    77  C          0.32382000       0.05969130       0.80736000
    78  C          0.17618000       0.55969130       0.69264000
    79  C          0.67618000       0.94030870       0.19264000
    80  C          0.82382000       0.44030870       0.30736000
    81  H          0.18760000       0.07310000       0.78360000
    82  H          0.31240000       0.57310000       0.71640000
    83  H          0.81240000       0.92690000       0.21640000
    84  H          0.68760000       0.42690000       0.28360000
    85  C          0.36013000       0.02462130       0.74736000
    86  C          0.13987000       0.52462130       0.75264000
    87  C          0.63987000       0.97537870       0.25264000
    88  C          0.86013000       0.47537870       0.24736000
    89  C          0.56469000       0.00694160       0.78454000
    90  C          0.93531000       0.50694160       0.71546000
    91  C          0.43531000       0.99305840       0.21546000
    92  C          0.06469000       0.49305840       0.28454000
    93  H          0.59910000       0.98360000       0.74510000
    94  H          0.90090000       0.48360000       0.75490000
    95  H          0.40090000       0.01640000       0.25490000
    96  H          0.09910000       0.51640000       0.24510000
    97  C          0.72179000       0.02385160       0.88154000
    98  C          0.77821000       0.52385160       0.61846000
    99  C          0.27821000       0.97614840       0.11846000
   100  C          0.22179000       0.47614840       0.38154000
   101  H          0.86040000       0.01120000       0.90630000
   102  H          0.63960000       0.51120000       0.59370000
   103  H          0.13960000       0.98880000       0.09370000
   104  H          0.36040000       0.48880000       0.40630000
   105  C          0.18592000       0.00711140       0.64316000
   106  C          0.31408000       0.50711140       0.85684000
   107  C          0.81408000       0.99288860       0.35684000
   108  C          0.68592000       0.49288860       0.14316000
   109  H          0.25890000      -0.00130000       0.56980000
   110  H          0.24110000       0.49870000       0.93020000
   111  H          0.74110000       0.00130000       0.43020000
   112  H          0.75890000       0.50130000       0.06980000
   113  H          0.07200000       0.02630000       0.61350000
   114  H          0.42800000       0.52630000       0.88650000
   115  H          0.92800000       0.97370000       0.38650000
   116  H          0.57200000       0.47370000       0.11350000
   117  H          0.11540000       0.98510000       0.67940000
   118  H          0.38460000       0.48510000       0.82060000
   119  H          0.88460000       0.01490000       0.32060000
   120  H          0.61540000       0.51490000       0.17940000
   121  N          0.68314000       0.05744110       0.94117000
   122  N          0.81686000       0.55744110       0.55883000
   123  N          0.31686000       0.94255890       0.05883000
   124  N          0.18314000       0.44255890       0.44117000
   125  C          0.07568000       0.27638130       0.40054000
   126  C          0.42432000       0.77638130       0.09946000
   127  C          0.92432000       0.72361870       0.59946000
   128  C          0.57568000       0.22361870       0.90054000
   129  H         -0.02620000       0.27660000       0.46210000
   130  H          0.52620000       0.77660000       0.03790000
   131  H          0.02620000       0.72340000       0.53790000
   132  H          0.47380000       0.22340000       0.96210000
   133  C          0.22318000       0.30704130       0.39934000
   134  C          0.27682000       0.80704130       0.10066000
   135  C          0.77682000       0.69295870       0.60066000
   136  C          0.72318000       0.19295870       0.89934000
   137  H          0.22010000       0.32750000       0.45890000
   138  H          0.27990000       0.82750000       0.04110000
   139  H          0.77990000       0.67250000       0.54110000
   140  H          0.72010000       0.17250000       0.95890000
   141  C          0.37717000       0.30757120       0.30914000
   142  C          0.12283000       0.80757120       0.19086000
   143  C          0.62283000       0.69242880       0.69086000
   144  C          0.87717000       0.19242880       0.80914000
   145  C          0.36977000       0.27591130       0.22324000
   146  C          0.13023000       0.77591130       0.27676000
   147  C          0.63023000       0.72408870       0.77676000
   148  C          0.86977000       0.22408870       0.72324000
   149  H          0.46950000       0.27500000       0.16050000
   150  H          0.03050000       0.77500000       0.33950000
   151  H          0.53050000       0.72500000       0.83950000
   152  H          0.96950000       0.22500000       0.66050000
   153  C          0.21777000       0.24606130       0.22954000
   154  C          0.28223000       0.74606130       0.27046000
   155  C          0.78223000       0.75393870       0.77046000
   156  C          0.71777000       0.25393870       0.72954000
   157  H          0.21690000       0.22520000       0.17080000
   158  H          0.28310000       0.72520000       0.32920000
   159  H          0.78310000       0.77480000       0.82920000
   160  H          0.71690000       0.27480000       0.67080000
   161  C          0.53908000       0.34057140       0.30224000
   162  C          0.96092000       0.84057140       0.19776000
   163  C          0.46092000       0.65942860       0.69776000
   164  C          0.03908000       0.15942860       0.80224000
   165  H          0.62330000       0.33640000       0.22970000
   166  H          0.87670000       0.83640000       0.27030000
   167  H          0.37670000       0.66360000       0.77030000
   168  H          0.12330000       0.16360000       0.72970000
   169  H          0.64280000       0.34190000       0.38340000
   170  H          0.85720000       0.84190000       0.11660000
   171  H          0.35720000       0.65810000       0.61660000
   172  H          0.14280000       0.15810000       0.88340000
   173  H          0.45550000       0.36470000       0.28930000
   174  H          0.04450000       0.86470000       0.21070000
   175  H          0.54450000       0.63530000       0.71070000
   176  H          0.95550000       0.13530000       0.78930000
   177  N          0.07046000       0.24596100       0.31733000
   178  N          0.42954000       0.74596100       0.18267000
   179  N          0.92954000       0.75403900       0.68267000
   180  N          0.57046000       0.25403900       0.81733000
