data_AKIXID
_symmetry_space_group_name_H-M    'P1'
_symmetry_Int_Tables_number       1
loop_
_symmetry_equiv_pos_site_id
_symmetry_equiv_pos_as_xyz
1 x,y,z
_cell_length_a                   5.87086
_cell_length_b                   31.6853
_cell_length_c                   9.92579
_cell_angle_alpha                90.0
_cell_angle_beta                 98.2587
_cell_angle_gamma                90.0
loop_
_atom_site_label
_atom_site_type_symbol
_atom_site_fract_x
_atom_site_fract_y
_atom_site_fract_z
     1  I          0.14485100       0.42106200       0.86679700
     2  I          0.14485100       0.57893800       0.36679700
     3  I          0.64485100       0.92106200       0.86679700
     4  I          0.64485100       0.07893800       0.36679700
     5  I          0.33287100       0.30605200       0.64945700
     6  I          0.33287100       0.69394800       0.14945700
     7  I          0.83287100       0.80605200       0.64945700
     8  I          0.83287100       0.19394800       0.14945700
     9  O          0.92431500       0.43333000       0.53049000
    10  O          0.92431500       0.56667000       0.03049000
    11  O          0.42431500       0.93333000       0.53049000
    12  O          0.42431500       0.06667000       0.03049000
    13  O          0.74521400       0.34693000       0.87108000
    14  O          0.74521400       0.65307000       0.37108000
    15  O          0.24521400       0.84693000       0.87108000
    16  O          0.24521400       0.15307000       0.37108000
    17  N          0.87861600       0.39533000       0.72559000
    18  N          0.87861600       0.60467000       0.22559000
    19  N          0.37861600       0.89533000       0.72559000
    20  N          0.37861600       0.10467000       0.22559000
    21  N          0.59281700       0.35054000       0.64349000
    22  N          0.59281700       0.64946000       0.14349000
    23  N          0.09281700       0.85054000       0.64349000
    24  N          0.09281700       0.14946000       0.14349000
    25  C          0.43120000       0.40034000       0.46321300
    26  C          0.43120000       0.59966000       0.96321300
    27  C          0.93120000       0.90034000       0.46321300
    28  C          0.93120000       0.09966000       0.96321300
    29  H          0.31550000       0.38150000       0.41910000
    30  H          0.31550000       0.61850000       0.91910000
    31  H          0.81550000       0.88150000       0.41910000
    32  H          0.81550000       0.11850000       0.91910000
    33  H          0.47510000       0.41990000       0.39780000
    34  H          0.47510000       0.58010000       0.89780000
    35  H         -0.02490000       0.91990000       0.39780000
    36  H         -0.02490000       0.08010000       0.89780000
    37  H          0.37130000       0.41540000       0.53410000
    38  H          0.37130000       0.58460000       0.03410000
    39  H          0.87130000       0.91540000       0.53410000
    40  H          0.87130000       0.08460000       0.03410000
    41  C          0.63920000       0.37514000       0.52381100
    42  C          0.63920000       0.62486000       0.02381100
    43  C          0.13920000       0.87514000       0.52381100
    44  C          0.13920000       0.12486000       0.02381100
    45  C          0.83120000       0.40554000       0.58881100
    46  C          0.83120000       0.59446000       0.08881100
    47  C          0.33120000       0.90554000       0.58881100
    48  C          0.33120000       0.09446000       0.08881100
    49  C          0.73720000       0.36244000       0.75631200
    50  C          0.73720000       0.63756000       0.25631200
    51  C          0.23720000       0.86244000       0.75631200
    52  C          0.23720000       0.13756000       0.25631200
    53  C          0.73120000       0.34834000       0.42021100
    54  C          0.73120000       0.65166000       0.92021100
    55  C          0.23120000       0.84834000       0.42021100
    56  C          0.23120000       0.15166000       0.92021100
    57  H          0.86100000       0.33260000       0.46300000
    58  H          0.86100000       0.66740000       0.96300000
    59  H          0.36100000       0.83260000       0.46300000
    60  H          0.36100000       0.16740000       0.96300000
    61  H          0.77650000       0.36590000       0.35020000
    62  H          0.77650000       0.63410000       0.85020000
    63  H          0.27650000       0.86590000       0.35020000
    64  H          0.27650000       0.13410000       0.85020000
    65  H          0.61300000       0.32910000       0.38060000
    66  H          0.61300000       0.67090000       0.88060000
    67  H          0.11300000       0.82910000       0.38060000
    68  H          0.11300000       0.17090000       0.88060000
    69  N          0.44551800       0.45003000       0.03939000
    70  N          0.44551800       0.54997000       0.53939000
    71  N          0.94551800       0.95003000       0.03939000
    72  N          0.94551800       0.04997000       0.53939000
    73  C          0.41120000       0.48574000       0.10611200
    74  C          0.41120000       0.51426000       0.60611200
    75  C          0.91120000       0.98574000       0.10611200
    76  C          0.91120000       0.01426000       0.60611200
    77  H          0.27370000       0.50040000       0.08320000
    78  H          0.27370000       0.49960000       0.58320000
    79  H          0.77370000       0.00040000       0.08320000
    80  H          0.77370000      -0.00040000       0.58320000
    81  C          0.57520000       0.50104000       0.20821300
    82  C          0.57520000       0.49896000       0.70821300
    83  C          0.07520000       0.00104000       0.20821300
    84  C          0.07520000      -0.00104000       0.70821300
    85  H          0.54930000       0.52640000       0.25100000
    86  H          0.54930000       0.47360000       0.75100000
    87  H          0.04930000       0.02640000       0.25100000
    88  H          0.04930000       0.97360000       0.75100000
    89  C          0.77430000       0.47914000       0.24671100
    90  C          0.77430000       0.52086000       0.74671100
    91  C          0.27430000       0.97914000       0.24671100
    92  C          0.27430000       0.02086000       0.74671100
    93  H          0.88230000       0.48820000       0.31840000
    94  H          0.88230000       0.51180000       0.81840000
    95  H          0.38230000       0.98820000       0.31840000
    96  H          0.38230000       0.01180000       0.81840000
    97  C          0.64320000       0.42874000       0.07251200
    98  C          0.64320000       0.57126000       0.57251200
    99  C          0.14320000       0.92874000       0.07251200
   100  C          0.14320000       0.07126000       0.57251200
   101  H          0.66770000       0.40410000       0.02570000
   102  H          0.66770000       0.59590000       0.52570000
   103  H          0.16770000       0.90410000       0.02570000
   104  H          0.16770000       0.09590000       0.52570000
   105  C          0.80820000       0.44254000       0.17381200
   106  C          0.80820000       0.55746000       0.67381200
   107  C          0.30820000       0.94254000       0.17381200
   108  C          0.30820000       0.05746000       0.67381200
   109  H          0.94400000       0.42740000       0.19460000
   110  H          0.94400000       0.57260000       0.69460000
   111  H          0.44400000       0.92740000       0.19460000
   112  H          0.44400000       0.07260000       0.69460000
   113  N          0.03321800       0.24893000       0.65581000
   114  N          0.03321800       0.75107000       0.15581000
   115  N          0.53321800       0.74893000       0.65581000
   116  N          0.53321800       0.25107000       0.15581000
   117  C          0.85770000       0.18724000       0.55451300
   118  C          0.85770000       0.81276000       0.05451300
   119  C          0.35770000       0.68724000       0.55451300
   120  C          0.35770000       0.31276000       0.05451300
   121  H          0.85480000       0.16610000       0.48910000
   122  H          0.85480000       0.83390000      -0.01090000
   123  H          0.35480000       0.66610000       0.48910000
   124  H          0.35480000       0.33390000      -0.01090000
   125  C          0.01920000       0.21854000       0.56161200
   126  C          0.01920000       0.78146000       0.06161200
   127  C          0.51920000       0.71854000       0.56161200
   128  C          0.51920000       0.28146000       0.06161200
   129  H          0.12200000       0.21860000       0.49870000
   130  H          0.12200000       0.78140000      -0.00130000
   131  H          0.62200000       0.71860000       0.49870000
   132  H          0.62200000       0.28140000      -0.00130000
   133  C          0.88280000       0.24904000       0.74551300
   134  C          0.88280000       0.75096000       0.24551300
   135  C          0.38280000       0.74904000       0.74551300
   136  C          0.38280000       0.25096000       0.24551300
   137  H          0.89270000       0.27000000       0.81150000
   138  H          0.89270000       0.73000000       0.31150000
   139  H          0.39270000       0.77000000       0.81150000
   140  H          0.39270000       0.23000000       0.31150000
   141  C          0.71380000       0.21894000       0.74221300
   142  C          0.71380000       0.78106000       0.24221300
   143  C          0.21380000       0.71894000       0.74221300
   144  C          0.21380000       0.28106000       0.24221300
   145  H          0.61020000       0.21990000       0.80470000
   146  H          0.61020000       0.78010000       0.30470000
   147  H          0.11020000       0.71990000       0.80470000
   148  H          0.11020000       0.28010000       0.30470000
   149  C          0.69770000       0.18684000       0.64521400
   150  C          0.69770000       0.81316000       0.14521400
   151  C          0.19770000       0.68684000       0.64521400
   152  C          0.19770000       0.31316000       0.14521400
   153  H          0.58580000       0.16600000       0.64140000
   154  H          0.58580000       0.83400000       0.14140000
   155  H          0.08580000       0.66600000       0.64140000
   156  H          0.08580000       0.33400000       0.14140000
