data_AKIXUP
_symmetry_space_group_name_H-M    'P1'
_symmetry_Int_Tables_number       1
loop_
_symmetry_equiv_pos_site_id
_symmetry_equiv_pos_as_xyz
1 x,y,z
_cell_length_a                   8.07154
_cell_length_b                   8.57145
_cell_length_c                   14.56458
_cell_angle_alpha                106.0433
_cell_angle_beta                 93.6813
_cell_angle_gamma                104.0643
loop_
_atom_site_label
_atom_site_type_symbol
_atom_site_fract_x
_atom_site_fract_y
_atom_site_fract_z
     1  C          0.29104000       0.10084000       0.72832000
     2  C          0.70896000       0.89916000       0.27168000
     3  C          0.08704000       0.08884000       0.82862000
     4  C          0.91296000       0.91116000       0.17138000
     5  C          0.24914000       0.07134000       0.88172000
     6  C          0.75086000       0.92866000       0.11828000
     7  C          0.21174000       0.90145000       0.90193000
     8  C          0.78826000       0.09855000       0.09807000
     9  H          0.17180000       0.81220000       0.84220000
    10  H          0.82820000       0.18780000       0.15780000
    11  H          0.12450000       0.89540000       0.94360000
    12  H          0.87550000       0.10460000       0.05640000
    13  H          0.31520000       0.89020000       0.93250000
    14  H          0.68480000       0.10980000       0.06750000
    15  C          0.31605000       0.21845000       0.97412000
    16  C          0.68395000       0.78155000       0.02588000
    17  H          0.41980000       0.20810000       0.00490000
    18  H          0.58020000       0.79190000      -0.00490000
    19  H          0.23040000       0.21690000       0.01690000
    20  H          0.76960000       0.78310000       0.98310000
    21  H          0.33980000       0.32280000       0.95860000
    22  H          0.66020000       0.67720000       0.04140000
    23  N          0.11903000       0.10443000       0.74143190
    24  N          0.88097000       0.89557000       0.25856810
    25  N          0.36613000       0.07904000       0.80842000
    26  N          0.63387000       0.92096000       0.19158000
    27  O          0.35513000       0.11523000       0.65683160
    28  O          0.64487000       0.88477000       0.34316840
    29  O          0.95303000       0.08783000       0.86422160
    30  O          0.04697000       0.91217000       0.13577840
    31  I          0.61993200       0.08072300       0.82548200
    32  I          0.38006800       0.91927700       0.17451800
    33  I          0.95955200       0.16384300       0.63331200
    34  I          0.04044800       0.83615700       0.36668800
    35  C          0.62234000       0.20634000       0.52932000
    36  C          0.37766000       0.79366000       0.47068000
    37  H          0.57680000       0.15970000       0.57580000
    38  H          0.42320000       0.84030000       0.42420000
    39  C          0.51384000       0.24824000       0.47052000
    40  C          0.48616000       0.75176000       0.52948000
    41  H          0.39760000       0.23000000       0.47760000
    42  H          0.60240000       0.77000000       0.52240000
    43  C          0.57734000       0.31904000       0.39912000
    44  C          0.42266000       0.68096000       0.60088000
    45  C          0.75524000       0.34054000       0.39302000
    46  C          0.24476000       0.65946000       0.60698000
    47  H          0.80470000       0.38600000       0.34690000
    48  H          0.19530000       0.61400000       0.65310000
    49  C          0.85464000       0.29394000       0.45522000
    50  C          0.14536000       0.70606000       0.54478000
    51  H          0.97100000       0.30830000       0.44940000
    52  H          0.02900000       0.69170000       0.55060000
    53  C          0.28844000       0.33524000       0.34073000
    54  C          0.71156000       0.66476000       0.65927000
    55  H          0.26420000       0.41330000       0.39710000
    56  H          0.73580000       0.58670000       0.60290000
    57  H          0.23440000       0.22070000       0.34020000
    58  H          0.76560000       0.77930000       0.65980000
    59  C          0.22555000       0.36695000       0.24863000
    60  C          0.77445000       0.63305000       0.75137000
    61  H          0.12810000       0.41450000       0.25700000
    62  H          0.87190000       0.58550000       0.74300000
    63  H          0.19180000       0.26320000       0.19530000
    64  H          0.80820000       0.73680000       0.80470000
    65  C          0.38065000       0.49195000       0.23113000
    66  C          0.61935000       0.50805000       0.76887000
    67  H          0.38610000       0.60650000       0.26800000
    68  H          0.61390000       0.39350000       0.73200000
    69  H          0.37550000       0.48420000       0.16320000
    70  H          0.62450000       0.51580000       0.83680000
    71  C          0.53545000       0.43924000       0.26493000
    72  C          0.46455000       0.56076000       0.73507000
    73  H          0.56550000       0.35800000       0.21240000
    74  H          0.43450000       0.64200000       0.78760000
    75  H          0.63480000       0.53600000       0.29140000
    76  H          0.36520000       0.46400000       0.70860000
    77  N          0.79253000       0.22893000       0.52354190
    78  N          0.20747000       0.77107000       0.47645810
    79  N          0.47443000       0.36323000       0.33961190
    80  N          0.52557000       0.63677000       0.66038810
