data_AKIYAW
_symmetry_space_group_name_H-M    'P1'
_symmetry_Int_Tables_number       1
loop_
_symmetry_equiv_pos_site_id
_symmetry_equiv_pos_as_xyz
1 x,y,z
_cell_length_a                   5.97482
_cell_length_b                   8.10033
_cell_length_c                   16.98055
_cell_angle_alpha                94.4512
_cell_angle_beta                 98.7122
_cell_angle_gamma                95.8972
loop_
_atom_site_label
_atom_site_type_symbol
_atom_site_fract_x
_atom_site_fract_y
_atom_site_fract_z
     1  C          0.94558000       0.71347000       0.15293000
     2  C          0.05442000       0.28653000       0.84707000
     3  H         -0.01690000       0.60480000       0.14830000
     4  H          0.01690000       0.39520000       0.85170000
     5  C          0.07138000       0.83867000       0.12123000
     6  C          0.92862000       0.16133000       0.87877000
     7  H          0.19290000       0.81390000       0.09580000
     8  H          0.80710000       0.18610000       0.90420000
     9  C          0.01538000      -0.00053000       0.12763000
    10  C         -0.01538000       0.00053000       0.87237000
    11  C          0.83678000       0.03427000       0.16703000
    12  C          0.16322000       0.96573000       0.83297000
    13  H          0.79800000       0.14220000       0.17320000
    14  H          0.20200000       0.85780000       0.82680000
    15  C          0.71718000       0.90447000       0.19703000
    16  C          0.28282000       0.09553000       0.80297000
    17  H          0.59560000       0.92680000       0.22290000
    18  H          0.40440000       0.07320000       0.77710000
    19  C          0.13799000       0.14397000       0.09583000
    20  C          0.86201000       0.85603000       0.90417000
    21  C          0.45021000       0.23568000       0.03524000
    22  C          0.54979000       0.76432000       0.96476000
    23  H          0.36130000       0.27720000       0.99060000
    24  H          0.63870000       0.72280000       0.00940000
    25  H          0.58420000       0.19700000       0.01880000
    26  H          0.41580000       0.80300000       0.98120000
    27  H          0.49410000       0.32330000       0.07780000
    28  H          0.50590000       0.67670000       0.92220000
    29  N          0.76976000       0.74795000       0.19012000
    30  N          0.23024000       0.25205000       0.80988000
    31  O          0.08047000       0.28175000       0.09682000
    32  O          0.91953000       0.71825000       0.90318000
    33  O          0.31506000       0.09825000       0.06282000
    34  O          0.68494000       0.90175000       0.93718000
    35  C          0.21827000       0.43456000       0.37493000
    36  C          0.78173000       0.56544000       0.62507000
    37  C          0.33147000       0.21966000       0.30183000
    38  C          0.66853000       0.78034000       0.69817000
    39  C          0.14148000       0.27476000       0.41063000
    40  C          0.85852000       0.72524000       0.58937000
    41  C          0.88212000       0.24786000       0.40433000
    42  C          0.11788000       0.75214000       0.59567000
    43  H          0.81310000       0.24960000       0.34960000
    44  H          0.18690000       0.75040000       0.65040000
    45  H          0.83300000       0.33490000       0.43690000
    46  H          0.16700000       0.66510000       0.56310000
    47  H          0.83780000       0.14190000       0.42260000
    48  H          0.16220000       0.85810000       0.57740000
    49  C          0.26109000       0.27826000       0.49613000
    50  C          0.73891000       0.72174000       0.50387000
    51  H          0.22490000       0.17270000       0.51610000
    52  H          0.77510000       0.82730000       0.48390000
    53  H          0.21100000       0.36490000       0.52870000
    54  H          0.78900000       0.63510000       0.47130000
    55  H          0.42270000       0.29920000       0.49770000
    56  H          0.57730000       0.70080000       0.50230000
    57  N          0.33006000       0.39415000       0.31362000
    58  N          0.66994000       0.60585000       0.68638000
    59  N          0.22177000       0.14985000       0.35732000
    60  N          0.77823000       0.85015000       0.64268000
    61  O          0.18636000       0.57404000       0.40011190
    62  O          0.81364000       0.42596000       0.59988810
    63  O          0.42085000       0.14984000       0.25049190
    64  O          0.57915000       0.85016000       0.74950810
    65  I          0.53911500       0.55519400       0.25361200
    66  I          0.46088500       0.44480600       0.74638800
    67  I          0.21248500       0.90016600       0.37070200
    68  I          0.78751500       0.09983400       0.62929800
