data_AKUGIY
_symmetry_space_group_name_H-M    'P1'
_symmetry_Int_Tables_number       1
loop_
_symmetry_equiv_pos_site_id
_symmetry_equiv_pos_as_xyz
1 x,y,z
_cell_length_a                   7.45207
_cell_length_b                   12.696011
_cell_length_c                   17.794015
_cell_angle_alpha                88.9602
_cell_angle_beta                 85.35401
_cell_angle_gamma                83.37201
loop_
_atom_site_label
_atom_site_type_symbol
_atom_site_fract_x
_atom_site_fract_y
_atom_site_fract_z
     1  Br         0.52463000       0.77634860       0.98595890
     2  Br         0.47537000       0.22365140       0.01404110
     3  Br         0.06293000       0.55392140       0.64285130
     4  Br         0.93707000       0.44607860       0.35714870
     5  S          0.03465000       0.05073000       0.15687180
     6  S          0.96535000       0.94927000       0.84312820
     7  S          0.54124000       0.25612000       0.49753170
     8  S          0.45876000       0.74388000       0.50246830
     9  F          0.78811900       0.51738000       0.04346000
    10  F          0.21188100       0.48262000       0.95654000
    11  F          0.62601100       0.85014000       0.76834000
    12  F          0.37398900       0.14986000       0.23166000
    13  N          0.74431300       0.22217000       0.32625000
    14  N          0.25568700       0.77783000       0.67375000
    15  N         -0.01128600       0.91273000       0.29785000
    16  N          0.01128600       0.08727000       0.70215000
    17  H          0.97850000       0.87260000       0.33700000
    18  H          0.02150000       0.12740000       0.66300000
    19  H          0.04370000       0.88760000       0.25660000
    20  H          0.95630000       0.11240000       0.74340000
    21  N          0.83551200       0.04477000       0.36935000
    22  N          0.16448800       0.95523000       0.63065000
    23  N          0.82591300       0.98203000       0.43275000
    24  N          0.17408700       0.01797000       0.56725000
    25  C          0.82941800       0.19239000       0.25927000
    26  C          0.17058200       0.80761000       0.74073000
    27  C          0.91711700       0.08939000       0.24446000
    28  C          0.08288300       0.91061000       0.75554000
    29  C          0.91981700       0.01339000       0.30116000
    30  C          0.08018300       0.98661000       0.69884000
    31  C          0.74761600       0.14789000       0.38117000
    32  C          0.25238400       0.85211000       0.61883000
    33  C          0.68421600       0.14698000       0.45726000
    34  C          0.31578400       0.85302000       0.54274000
    35  C          0.72991600       0.04569000       0.48596000
    36  C          0.27008400       0.95431000       0.51404000
    37  C          0.82620000       0.27811000       0.20277000
    38  C          0.17380000       0.72189000       0.79723000
    39  C          0.66020000       0.33281000       0.19078000
    40  C          0.33980000       0.66719000       0.80922000
    41  H          0.55690000       0.31520000       0.21910000
    42  H          0.44310000       0.68480000       0.78090000
    43  C          0.64130000       0.41751200       0.13451000
    44  C          0.35870000       0.58248800       0.86549000
    45  H          0.53110000       0.45730000       0.12730000
    46  H          0.46890000       0.54270000       0.87270000
    47  C          0.79630000       0.43351200       0.09409000
    48  C          0.20370000       0.56648800       0.90591000
    49  C          0.96430000       0.38551200       0.10728000
    50  C          0.03570000       0.61448800       0.89272000
    51  H          0.06750000       0.40640000       0.08150000
    52  H          0.93250000       0.59360000       0.91850000
    53  C          0.97420000       0.30371000       0.16078000
    54  C          0.02580000       0.69629000       0.83922000
    55  H          0.08620000       0.26580000       0.16760000
    56  H          0.91380000       0.73420000       0.83240000
    57  C          0.88120000       0.97681000       0.11456000
    58  C          0.11880000       0.02319000       0.88544000
    59  C          0.69220000      -0.00231000       0.12197000
    60  C          0.30780000       0.00231000       0.87803000
    61  H          0.63640000       0.05280000       0.15230000
    62  H          0.36360000       0.94720000       0.84770000
    63  C          0.59220000       0.93868900       0.08567000
    64  C          0.40780000       0.06131100       0.91433000
    65  H          0.46630000       0.95090000       0.09270000
    66  H          0.53370000       0.04910000       0.90730000
    67  C          0.67120000       0.85918900       0.03747000
    68  C          0.32880000       0.14081100       0.96253000
    69  C          0.85130000       0.83828900       0.02868000
    70  C          0.14870000       0.16171100       0.97132000
    71  H          0.90210000       0.78420000      -0.00360000
    72  H          0.09790000       0.21580000       0.00360000
    73  C          0.96220000       0.89469000       0.06607000
    74  C          0.03780000       0.10531000       0.93393000
    75  H          0.08710000       0.87930000       0.05950000
    76  H          0.91290000       0.12070000       0.94050000
    77  C          0.68841900       0.33119000       0.54057000
    78  C          0.31158100       0.66881000       0.45943000
    79  C          0.61620000       0.42889000       0.57107000
    80  C          0.38380000       0.57111000       0.42893000
    81  H          0.49270000       0.45040000       0.57060000
    82  H          0.50730000       0.54960000       0.42940000
    83  C          0.72720000       0.49381100       0.60178000
    84  C          0.27280000       0.50618900       0.39822000
    85  H          0.67760000       0.55870000       0.62180000
    86  H          0.32240000       0.44130000       0.37820000
    87  C          0.91320000       0.46351000       0.60328000
    88  C          0.08680000       0.53649000       0.39672000
    89  C          0.98220000       0.36221100       0.57818000
    90  C          0.01780000       0.63778900       0.42182000
    91  H          0.10250000       0.33710000       0.58330000
    92  H          0.89750000       0.66290000       0.41670000
    93  C          0.87220000       0.30031000       0.54607000
    94  C          0.12780000       0.69969000       0.45393000
    95  H          0.92150000       0.23460000       0.52700000
    96  H          0.07850000       0.76540000       0.47300000
    97  C          0.69781700      -0.00419000       0.56066000
    98  C          0.30218300       0.00419000       0.43934000
    99  C          0.60731800       0.05031000       0.62267000
   100  C          0.39268200       0.94969000       0.37733000
   101  H          0.56310000       0.12140000       0.61720000
   102  H          0.43690000       0.87860000       0.38280000
   103  C          0.58191800       0.00081000       0.69207000
   104  C          0.41808200      -0.00081000       0.30793000
   105  H          0.51940000       0.03770000       0.73260000
   106  H          0.48060000       0.96230000       0.26740000
   107  C          0.64871800       0.89889000       0.69997000
   108  C          0.35128200       0.10111000       0.30003000
   109  C          0.74211700       0.84109000       0.64007000
   110  C          0.25788300       0.15891000       0.35993000
   111  H          0.78720000       0.77040000       0.64630000
   112  H          0.21280000       0.22960000       0.35370000
   113  C          0.76551700       0.89099000       0.57197000
   114  C          0.23448300       0.10901000       0.42803000
   115  H          0.82880000       0.85340000       0.53180000
   116  H          0.17120000       0.14660000       0.46820000
   117  O          0.43840000       0.63921600       0.19931200
   118  O          0.56160000       0.36078400       0.80068800
   119  O          0.22640000       0.77771700       0.20411300
   120  O          0.77360000       0.22228300       0.79588700
   121  C          0.28580000       0.69030000       0.18920000
   122  C          0.71420000       0.30970000       0.81080000
   123  C          0.16850000       0.63030000       0.15220000
   124  C          0.83150000       0.36970000       0.84780000
   125  H          0.05810000       0.67460000       0.14300000
   126  H          0.94190000       0.32540000       0.85700000
   127  H          0.13980000       0.57130000       0.18330000
   128  H          0.86020000       0.42870000       0.81670000
   129  H          0.22700000       0.60500000       0.10470000
   130  H          0.77300000       0.39500000       0.89530000
   131  C          0.54660000       0.70320000       0.24320000
   132  C          0.45340000       0.29680000       0.75680000
   133  H          0.51640000       0.69080000       0.29600000
   134  H          0.48360000       0.30920000       0.70400000
   135  H          0.51120000       0.77730000       0.23210000
   136  H          0.48880000       0.22270000       0.76790000
   137  C          0.74760000       0.68030000       0.22720000
   138  C          0.25240000       0.31970000       0.77280000
   139  H          0.77890000       0.60550000       0.21900000
   140  H          0.22110000       0.39450000       0.78100000
   141  H          0.80620000       0.70200000       0.26900000
   142  H          0.19380000       0.29800000       0.73100000
   143  H          0.78490000       0.71850000       0.18250000
   144  H          0.21510000       0.28150000       0.81750000
