data_AKUYIQ
_symmetry_space_group_name_H-M    'P1'
_symmetry_Int_Tables_number       1
loop_
_symmetry_equiv_pos_site_id
_symmetry_equiv_pos_as_xyz
1 x,y,z
_cell_length_a                   8.76195
_cell_length_b                   12.93148
_cell_length_c                   14.93759
_cell_angle_alpha                65.79101
_cell_angle_beta                 79.67901
_cell_angle_gamma                74.68001
loop_
_atom_site_label
_atom_site_type_symbol
_atom_site_fract_x
_atom_site_fract_y
_atom_site_fract_z
     1  P          0.87872400       0.46112300       0.38151200
     2  P          0.12127600       0.53887700       0.61848800
     3  P          0.10248400       0.76800300       0.20802200
     4  P          0.89751600       0.23199700       0.79197800
     5  N          0.82413130       0.69316900       0.27130800
     6  N          0.17586870       0.30683100       0.72869200
     7  N          0.43701150       0.86412110       0.28259110
     8  N          0.56298850       0.13587890       0.71740890
     9  C          0.74894160       0.59365110       0.29949100
    10  C          0.25105840       0.40634890       0.70050900
    11  C          0.96437160       0.68517120       0.20141100
    12  C          0.03562840       0.31482880       0.79858900
    13  C          0.21756170       0.65877130       0.31201100
    14  C          0.78243830       0.34122870       0.68798900
    15  C          0.13340160       0.65211120       0.41295900
    16  C          0.86659840       0.34788880       0.58704100
    17  C          0.22867170       0.55751130       0.49660100
    18  C          0.77132830       0.44248870       0.50339900
    19  C          0.85083150       0.34154110       0.35296900
    20  C          0.14916850       0.65845890       0.64703100
    21  C          0.70673160       0.32864120       0.33377110
    22  C          0.29326840       0.67135880       0.66622890
    23  C          0.70644190       0.24098140       0.30249130
    24  C          0.29355810       0.75901860       0.69750870
    25  C          0.84412000       0.16294140       0.29100130
    26  C          0.15588000       0.83705860       0.70899870
    27  C          0.98381190       0.17300140       0.31422120
    28  C          0.01618810       0.82699860       0.68577880
    29  C         -0.00927840       0.26045120       0.34435100
    30  C          0.00927840       0.73954880       0.65564900
    31  C          0.54852190       0.40707170       0.34386180
    32  C          0.45147810       0.59292830       0.65613820
    33  C          0.84093000       0.07293000       0.25203000
    34  C          0.15907000       0.92707000       0.74797000
    35  C          0.15132000       0.26447190       0.36533180
    36  C          0.84868000       0.73552810       0.63466820
    37  C          0.71014170       0.80268120       0.22854110
    38  C          0.28985830       0.19731880       0.77145890
    39  C          0.58805160       0.83156110       0.30429110
    40  C          0.41194840       0.16843890       0.69570890
    41  C          0.32662000       0.89461150       0.34720150
    42  C          0.67338000       0.10538850       0.65279850
    43  C          0.35892000       0.89388170       0.43311150
    44  C          0.64108000       0.10611830       0.56688850
    45  C          0.51473000       0.85942000       0.45562160
    46  C          0.48527000       0.14058000       0.54437840
    47  C          0.63122000       0.82713180       0.39052140
    48  C          0.36878000       0.17286820       0.60947860
    49  C          0.24617150       0.77494110       0.09959900
    50  C          0.75382850       0.22505890       0.90040100
    51  C          0.32227170       0.68081120       0.07088100
    52  C          0.67772830       0.31918880       0.92911900
    53  C          0.43225190       0.69891140       0.98862890
    54  C          0.56774810       0.30108860       0.01137110
    55  C          0.47190180       0.80541140       0.93388890
    56  C          0.52809820       0.19458860       0.06611110
    57  C          0.39707180       0.89736130       0.96249900
    58  C          0.60292820       0.10263870       0.03750100
    59  C          0.28461160       0.88439110       0.04285100
    60  C          0.71538840       0.11560890       0.95714900
    61  C          0.29152000       0.55972130       0.12205130
    62  C          0.70848000       0.44027870       0.87794870
    63  C          0.59183000       0.82168190       0.84547850
    64  C          0.40817000       0.17831810       0.15452150
    65  C          0.20832000       0.99112130       0.06579120
    66  C          0.79168000       0.00887870       0.93420880
    67  H          0.64220000       0.61341500       0.33541200
    68  H          0.35780000       0.38658500       0.66458800
    69  H          0.72820000       0.58461500       0.24161300
    70  H          0.27180000       0.41538500       0.75838700
    71  H          0.93620000       0.71631500       0.13111300
    72  H          0.06380000       0.28368500       0.86888700
    73  H          0.01220000       0.60251500       0.22121200
    74  H          0.98780000       0.39748500       0.77878800
    75  H          0.31820000       0.68091400       0.30351200
    76  H          0.68180000       0.31908600       0.69648800
    77  H          0.23720000       0.58481600       0.31201300
    78  H          0.76280000       0.41518400       0.68798700
    79  H          0.11571900       0.72741500       0.41921200
    80  H          0.88428100       0.27258500       0.58078800
    81  H          0.03020000       0.63511400       0.41891200
    82  H          0.96980000       0.36488600       0.58108800
    83  H          0.33620000       0.57151600       0.49321300
    84  H          0.66380000       0.42848400       0.50678700
    85  H          0.24020000       0.48371700       0.49281400
    86  H          0.75980000       0.51628300       0.50718600
    87  H          0.60720000       0.23461700       0.28911400
    88  H          0.39280000       0.76538300       0.71088600
    89  H          0.08020000       0.11581500       0.30911300
    90  H          0.91980000       0.88418500       0.69088700
    91  H          0.53140000       0.48830000       0.28420000
    92  H          0.46860000       0.51170000       0.71580000
    93  H          0.45920000       0.37481700       0.34421500
    94  H          0.54080000       0.62518300       0.65578500
    95  H          0.54230000       0.43120000       0.39551700
    96  H          0.45770000       0.56880000       0.60448300
    97  H          0.92340000       0.01030000       0.27420000
    98  H          0.07660000       0.98970000       0.72580000
    99  H          0.86570000       0.10050000       0.18550000
   100  H          0.13430000       0.89950000       0.81450000
   101  H          0.74240000       0.05030000       0.27020000
   102  H          0.25760000       0.94970000       0.72980000
   103  H          0.14930000       0.26320000       0.42861900
   104  H          0.85070000       0.73680000       0.57138100
   105  H          0.22230000       0.20220000       0.35971700
   106  H          0.77770000       0.79780000       0.64028300
   107  H          0.18830000       0.33630000       0.31720000
   108  H          0.81170000       0.66370000       0.68280000
   109  H          0.65320000       0.80261500       0.17371300
   110  H          0.34680000       0.19738500       0.82628700
   111  H          0.77520000       0.86311600       0.19801300
   112  H          0.22480000       0.13688400       0.80198700
   113  H          0.21330000       0.91951900       0.32831600
   114  H          0.78670000       0.08048100       0.67168400
   115  H          0.28330000       0.91420000       0.47681700
   116  H          0.71670000       0.08580000       0.52318300
   117  H          0.55030000       0.85520000       0.51620000
   118  H          0.44970000       0.14480000       0.48380000
   119  H          0.74230000       0.80871800       0.39791500
   120  H          0.25770000       0.19128200       0.60208500
   121  H          0.48120000       0.63411500       0.96958700
   122  H          0.51880000       0.36588500       0.03041300
   123  H          0.42531900       0.97161500       0.92608800
   124  H          0.57468100       0.02838500       0.07391200
   125  H          0.19430000       0.55520000       0.09891800
   126  H          0.80570000       0.44480000       0.90108200
   127  H          0.28020000       0.53271700       0.19091600
   128  H          0.71980000       0.46728300       0.80908400
   129  H          0.37730000       0.50420000       0.10691800
   130  H          0.62270000       0.49580000       0.89308200
   131  H          0.54730000       0.87030000       0.78280000
   132  H          0.45270000       0.12970000       0.21720000
   133  H          0.64530000       0.74720000       0.84298100
   134  H          0.35470000       0.25280000       0.15701900
   135  H          0.67040000       0.85230000       0.85180000
   136  H          0.32960000       0.14770000       0.14820000
   137  H          0.22630000       0.97941900       0.12951800
   138  H          0.77370000       0.02058100       0.87048200
   139  H          0.10030000       0.00471800       0.06451500
   140  H          0.89970000      -0.00471800       0.93548500
   141  H          0.25230000       0.05641900       0.01891600
   142  H          0.74770000       0.94358100       0.98108400
   143  H          0.46940000       0.51230000       0.71620000
   144  H          0.53060000       0.48770000       0.28380000
   145  H          0.07740000       0.99030000       0.72620000
   146  H          0.92260000       0.00970000       0.27380000
   147  H          0.13570000       0.90050000       0.81550000
   148  H          0.86430000       0.09950000       0.18450000
   149  H          0.25840000       0.95030000       0.73020000
   150  H          0.74160000       0.04970000       0.26980000
   151  C          0.11084000       0.54034000       0.92549170
   152  C          0.88916000       0.45966000       0.07450830
   153  C          0.98274000       0.61723000       0.94672000
   154  C          0.01726000       0.38277000       0.05328000
   155  C          0.87234000       0.57563000       0.02172000
   156  C          0.12766000       0.42437000       0.97828000
   157  H          0.19340000       0.57030000       0.88020000
   158  H          0.80660000       0.42970000       0.11980000
   159  H          0.96540000       0.70230000       0.91420000
   160  H          0.03460000       0.29770000       0.08580000
   161  H          0.78930000       0.63620000       0.03020000
   162  H          0.21070000       0.36380000       0.96980000
   163  H          0.80740000       0.43030000       0.12020000
   164  H          0.19260000       0.56970000       0.87980000
   165  H          0.03540000       0.29830000       0.08620000
   166  H          0.96460000       0.70170000       0.91380000
