data_ALIWEZ
_symmetry_space_group_name_H-M    'P1'
_symmetry_Int_Tables_number       1
loop_
_symmetry_equiv_pos_site_id
_symmetry_equiv_pos_as_xyz
1 x,y,z
_cell_length_a                   11.30962
_cell_length_b                   6.942501
_cell_length_c                   14.27793
_cell_angle_alpha                90.0
_cell_angle_beta                 98.91901
_cell_angle_gamma                90.0
loop_
_atom_site_label
_atom_site_type_symbol
_atom_site_fract_x
_atom_site_fract_y
_atom_site_fract_z
     1  S          0.27276500       0.55662110       0.76800400
     2  S          0.72723500       0.05662110       0.23199600
     3  S          0.87191500       0.62214120       0.91248400
     4  S          0.12808500       0.12214120       0.08751600
     5  S          0.28424400       0.61391110       0.13720400
     6  S          0.71575600       0.11391110       0.86279600
     7  N          0.07666150       0.58363000       0.84617120
     8  N          0.92333850       0.08363000       0.15382880
     9  N          0.08670140       0.60723000       0.01116110
    10  N          0.91329860       0.10723000       0.98883890
    11  H          0.04870000       0.61560000       0.05870000
    12  H          0.95130000       0.11560000       0.94130000
    13  N          0.25985150       0.58683000       0.94968120
    14  N          0.74014850       0.08683000       0.05031880
    15  H          0.33670000       0.58410000       0.95670000
    16  H          0.66330000       0.08410000       0.04330000
    17  C          0.19712180       0.57613000       0.85854130
    18  C          0.80287820       0.07613000       0.14145870
    19  C          0.02124170       0.60083000       0.92119140
    20  C          0.97875830       0.10083000       0.07880860
    21  C          0.20757170       0.60103000       0.02830140
    22  C          0.79242830       0.10103000       0.97169860
    23  S          0.56285500       0.62245140       0.96492400
    24  S          0.43714500       0.12245140       0.03507600
    25  S          0.53610500       0.54353140       0.32694400
    26  S          0.46389500       0.04353140       0.67305600
    27  S          0.95813400       0.56556100       0.21109400
    28  S          0.04186600       0.06556100       0.78890600
    29  N          0.56829150       0.58153000       0.14961120
    30  N          0.43170850       0.08153000       0.85038880
    31  H          0.49140000       0.58550000       0.13730000
    32  H          0.50860000       0.08550000       0.86270000
    33  N          0.74078150       0.55213000       0.25823120
    34  N          0.25921850       0.05213000       0.74176880
    35  H          0.77570000       0.53480000       0.31550000
    36  H          0.22430000       0.03480000       0.68450000
    37  N          0.75062140       0.59203000       0.09966120
    38  N          0.24937860       0.09203000       0.90033880
    39  H          0.79270000       0.60280000       0.05470000
    40  H          0.20730000       0.10280000       0.94530000
    41  C          0.62966170       0.59774000       0.07542140
    42  C          0.37033830       0.09774000       0.92457860
    43  C          0.61909180       0.55944000       0.24229140
    44  C          0.38090820       0.05944000       0.75770860
    45  C          0.81079170       0.57043000       0.18949140
    46  C          0.18920830       0.07043000       0.81050860
    47  O          0.85495170       0.72263000       0.46858130
    48  O          0.14504830       0.22263000       0.53141870
    49  O          0.85051160       0.40863000       0.43665120
    50  O          0.14948840       0.90863000       0.56334880
    51  N          0.96656160       0.68443000       0.64620130
    52  N          0.03343840       0.18443000       0.35379870
    53  H         -0.00150000       0.65510000       0.70540000
    54  H          0.00150000       0.15510000       0.29460000
    55  H          0.90160000       0.75640000       0.64680000
    56  H          0.09840000       0.25640000       0.35320000
    57  H          0.01970000       0.74950000       0.61870000
    58  H          0.98030000       0.24950000       0.38130000
    59  N          0.68782190       0.50723000       0.72424130
    60  N          0.31217810       0.00723000       0.27575870
    61  H          0.73140000       0.51480000       0.77910000
    62  H          0.26860000       0.01480000       0.22090000
    63  N          0.53696180       0.52554000       0.61532150
    64  N          0.46303820       0.02554000       0.38467850
    65  H          0.46570000       0.54670000       0.58620000
    66  H          0.53430000       0.04670000       0.41380000
    67  C          0.87457160       0.55214000       0.49013140
    68  C          0.12542840       0.05214000       0.50986860
    69  C          0.93314180       0.50423000       0.59224150
    70  C          0.06685820       0.00423000       0.40775850
    71  H          0.00690000       0.43250000       0.58860000
    72  H         -0.00690000       0.93250000       0.41140000
    73  C          0.85292000       0.37694000       0.64319170
    74  C          0.14708000       0.87694000       0.35680830
    75  H          0.84930000       0.25010000       0.61440000
    76  H          0.15070000       0.75010000       0.38560000
    77  H          0.89080000       0.36250000       0.70860000
    78  H          0.10920000       0.86250000       0.29140000
    79  C          0.72762000       0.44583000       0.64292160
    80  C          0.27238000       0.94583000       0.35707840
    81  C          0.57352000       0.55285000       0.70611170
    82  C          0.42648000       0.05285000       0.29388830
    83  H          0.52680000       0.59650000       0.75000000
    84  H          0.47320000       0.09650000       0.25000000
    85  C          0.63132000       0.45744000       0.57416170
    86  C          0.36868000       0.95744000       0.42583830
    87  H          0.62900000       0.42530000       0.51070000
    88  H          0.37100000       0.92530000       0.48930000
    89  O          0.29384150       0.55043000       0.53698120
    90  O          0.70615850       0.05043000       0.46301880
    91  H          0.25690000       0.45540000       0.55260000
    92  H          0.74310000       0.95540000       0.44740000
    93  H          0.24480000       0.65580000       0.54420000
    94  H          0.75520000       0.15580000       0.45580000
    95  O          0.23928190       0.40563000       0.34416160
    96  O          0.76071810       0.90563000       0.65583840
    97  H          0.25760000       0.46230000       0.29570000
    98  H          0.74240000       0.96230000       0.70430000
    99  H          0.27560000       0.46840000       0.39150000
   100  H          0.72440000       0.96840000       0.60850000
