data_ALOKOC
_symmetry_space_group_name_H-M    'P1'
_symmetry_Int_Tables_number       1
loop_
_symmetry_equiv_pos_site_id
_symmetry_equiv_pos_as_xyz
1 x,y,z
_cell_length_a                   9.25882
_cell_length_b                   11.12693
_cell_length_c                   11.81953
_cell_angle_alpha                75.449113
_cell_angle_beta                 73.376813
_cell_angle_gamma                72.74961
loop_
_atom_site_label
_atom_site_type_symbol
_atom_site_fract_x
_atom_site_fract_y
_atom_site_fract_z
     1  Br         0.67749500       0.59723400       0.90625600
     2  Br         0.32250500       0.40276600       0.09374400
     3  C          0.79205000       0.43204000       0.95136000
     4  C          0.20795000       0.56796000       0.04864000
     5  N          0.78424000       0.36484000       0.06263000
     6  N          0.21576000       0.63516000       0.93737000
     7  C          0.89885000       0.25044000       0.05834000
     8  C          0.10115000       0.74956000       0.94166000
     9  C          0.97485000       0.25054000       0.94196000
    10  C          0.02515000       0.74946000       0.05804000
    11  N          0.90504000       0.36424000       0.87537000
    12  N          0.09496000       0.63576000       0.12463000
    13  C          0.94756000       0.40325000       0.74566000
    14  C          0.05244000       0.59675000       0.25434000
    15  C          0.08445000       0.46404000       0.70546000
    16  C          0.91555000       0.53596000       0.29454000
    17  C          0.13835000       0.50404000       0.78476000
    18  C          0.86165000       0.49596000       0.21524000
    19  C          0.26025000       0.56454000       0.74356000
    20  C          0.73975000       0.43546000       0.25644000
    21  C          0.32915000       0.59954000       0.82836000
    22  C          0.67085000       0.40046000       0.17164000
    23  C          0.32656000       0.58735000       0.62156000
    24  C          0.67344000       0.41265000       0.37844000
    25  C          0.27636000       0.54625000       0.54106000
    26  C          0.72364000       0.45375000       0.45894000
    27  C          0.15656000       0.48345000       0.58346000
    28  C          0.84344000       0.51655000       0.41654000
    29  C          0.10846000       0.15615000       0.88405000
    30  C          0.89154000       0.84385000       0.11595000
    31  C          0.91896000       0.15335000       0.16845000
    32  C          0.08104000       0.84665000       0.83155000
    33  H          0.97140000       0.32660000       0.71120000
    34  H          0.02860000       0.67340000       0.28880000
    35  H          0.85970000       0.46650000       0.72050000
    36  H          0.14030000       0.53350000       0.27950000
    37  H          0.08900000       0.48930000       0.86800000
    38  H          0.91100000       0.51070000       0.13200000
    39  H          0.37370000       0.67340000       0.78720000
    40  H          0.62630000       0.32660000       0.21280000
    41  H          0.41340000       0.52640000       0.85130000
    42  H          0.58660000       0.47360000       0.14870000
    43  H          0.40350000       0.63030000       0.59250000
    44  H          0.59650000       0.36970000       0.40750000
    45  H          0.32340000       0.56070000       0.45860000
    46  H          0.67660000       0.43930000       0.54140000
    47  H          0.12350000       0.45610000       0.53060000
    48  H          0.87650000       0.54390000       0.46940000
    49  H          0.08980000       0.15400000       0.80810000
    50  H          0.91020000       0.84600000       0.19190000
    51  H          0.20400000       0.18080000       0.87310000
    52  H          0.79600000       0.81920000       0.12690000
    53  H          0.10890000       0.07300000       0.93710000
    54  H          0.89110000       0.92700000       0.06290000
    55  H          0.98990000       0.07620000       0.14830000
    56  H          0.01010000       0.92380000       0.85170000
    57  H          0.95060000       0.18840000       0.22040000
    58  H          0.04940000       0.81160000       0.77960000
    59  H          0.82010000       0.13530000       0.20870000
    60  H          0.17990000       0.86470000       0.79130000
    61  Br         0.48877600       0.87390400       0.80214500
    62  Br         0.51122400       0.12609600       0.19785500
    63  S          0.85982000       0.84482000       0.46791160
    64  S          0.14018000       0.15518000       0.53208840
    65  O         -0.00615000       0.87265000       0.36974000
    66  O          0.00615000       0.12735000       0.63026000
    67  C          0.90337000       0.83087000       0.60515000
    68  C          0.09663000       0.16913000       0.39485000
    69  C          0.71419000       0.98629000       0.47117000
    70  C          0.28581000       0.01371000       0.52883000
    71  H          0.62660000       0.97150000       0.53340000
    72  H          0.37340000       0.02850000       0.46660000
    73  H          0.75020000       0.05160000       0.48480000
    74  H          0.24980000       0.94840000       0.51520000
    75  H          0.68530000       0.01200000       0.39600000
    76  H          0.31470000       0.98800000       0.60400000
    77  H          0.81900000       0.81180000       0.66890000
    78  H          0.18100000       0.18820000       0.33110000
    79  H          0.92050000       0.90960000       0.60900000
    80  H          0.07950000       0.09040000       0.39100000
    81  H         -0.00580000       0.76440000       0.61220000
    82  H          0.00580000       0.23560000       0.38780000
    83  S          0.45674150       0.75062120       0.17913120
    84  S          0.54325850       0.24937880       0.82086880
    85  O          0.38505000       0.63804000       0.21034000
    86  O          0.61495000       0.36196000       0.78966000
    87  C          0.31377000       0.88755000       0.13445000
    88  C          0.68623000       0.11245000       0.86555000
    89  C          0.45099000       0.78826000       0.31816000
    90  C          0.54901000       0.21174000       0.68184000
    91  H          0.35400000       0.96130000       0.11370000
    92  H          0.64600000       0.03870000       0.88630000
    93  H          0.22480000       0.89750000       0.19910000
    94  H          0.77520000       0.10250000       0.80090000
    95  H          0.28550000       0.87680000       0.06700000
    96  H          0.71450000       0.12320000       0.93300000
    97  H          0.49570000       0.85880000       0.30330000
    98  H          0.50430000       0.14120000       0.69670000
    99  H          0.50740000       0.71640000       0.36400000
   100  H          0.49260000       0.28360000       0.63600000
   101  H          0.34590000       0.80990000       0.36120000
   102  H          0.65410000       0.19010000       0.63880000
