data_AMUCAO
_symmetry_space_group_name_H-M    'P1'
_symmetry_Int_Tables_number       1
loop_
_symmetry_equiv_pos_site_id
_symmetry_equiv_pos_as_xyz
1 x,y,z
_cell_length_a                   10.74344
_cell_length_b                   8.30252
_cell_length_c                   19.05487
_cell_angle_alpha                90.0
_cell_angle_beta                 113.8133
_cell_angle_gamma                90.0
loop_
_atom_site_label
_atom_site_type_symbol
_atom_site_fract_x
_atom_site_fract_y
_atom_site_fract_z
     1  O          0.27394140       0.52989150       0.37272700
     2  O          0.72605860       0.02989150       0.12727300
     3  O          0.72605860       0.47010850       0.62727300
     4  O          0.27394140       0.97010850       0.87272700
     5  C          0.27822000       0.48752000       0.44021110
     6  C          0.72178000      -0.01248000       0.05978890
     7  C          0.72178000       0.51248000       0.55978890
     8  C          0.27822000       0.01248000       0.94021110
     9  C          0.19632000       0.56212000       0.47280110
    10  C          0.80368000       0.06212000       0.02719890
    11  C          0.80368000       0.43788000       0.52719890
    12  C          0.19632000       0.93788000       0.97280110
    13  H          0.13560000       0.64570000       0.44570000
    14  H          0.86440000       0.14570000       0.05430000
    15  H          0.86440000       0.35430000       0.55430000
    16  H          0.13560000       0.85430000       0.94570000
    17  C          0.20352000       0.51492000       0.54349110
    18  C          0.79648000       0.01492000       0.95650890
    19  C          0.79648000       0.48508000       0.45650890
    20  C          0.20352000      -0.01492000       0.04349110
    21  H          0.14660000       0.56600000       0.56420000
    22  H          0.85340000       0.06600000       0.93580000
    23  H          0.85340000       0.43400000       0.43580000
    24  H          0.14660000       0.93400000       0.06420000
    25  C          0.29282000       0.39342000       0.58578110
    26  C          0.70718000       0.89342000       0.91421890
    27  C          0.70718000       0.60658000       0.41421890
    28  C          0.29282000       0.10658000       0.08578110
    29  H          0.29720000       0.36330000       0.63480000
    30  H          0.70280000       0.86330000       0.86520000
    31  H          0.70280000       0.63670000       0.36520000
    32  H          0.29720000       0.13670000       0.13480000
    33  C          0.37342000       0.31892000       0.55569110
    34  C          0.62658000       0.81892000       0.94430890
    35  C          0.62658000       0.68108000       0.44430890
    36  C          0.37342000       0.18108000       0.05569110
    37  H          0.43400000       0.23640000       0.58410000
    38  H          0.56600000       0.73640000       0.91590000
    39  H          0.56600000       0.76360000       0.41590000
    40  H          0.43400000       0.26360000       0.08410000
    41  C          0.36785190       0.36282000       0.48279100
    42  C          0.63214810       0.86282000       0.01720900
    43  C          0.63214810       0.63718000       0.51720900
    44  C          0.36785190       0.13718000       0.98279100
    45  C          0.45422000       0.28032000       0.45582110
    46  C          0.54578000       0.78032000       0.04417890
    47  C          0.54578000       0.71968000       0.54417890
    48  C          0.45422000       0.21968000       0.95582110
    49  H          0.51150000       0.19850000       0.48740000
    50  H          0.48850000       0.69850000       0.01260000
    51  H          0.48850000       0.80150000       0.51260000
    52  H          0.51150000       0.30150000       0.98740000
    53  N          0.46031170       0.30949190       0.38976900
    54  N          0.53968830       0.80949190       0.11023100
    55  N          0.53968830       0.69050810       0.61023100
    56  N          0.46031170       0.19050810       0.88976900
    57  H          0.39820000       0.39320000       0.36161100
    58  H          0.60180000       0.89320000       0.13838900
    59  H          0.60180000       0.60680000       0.63838900
    60  H          0.39820000       0.10680000       0.86161100
    61  C          0.54522000       0.23122000       0.35944110
    62  C          0.45478000       0.73122000       0.14055890
    63  C          0.45478000       0.76878000       0.64055890
    64  C          0.54522000       0.26878000       0.85944110
    65  C          0.54332000       0.28872000       0.29077110
    66  C          0.45668000       0.78872000       0.20922890
    67  C          0.45668000       0.71128000       0.70922890
    68  C          0.54332000       0.21128000       0.79077110
    69  H          0.48440000       0.37480000       0.26500000
    70  H          0.51560000       0.87480000       0.23500000
    71  H          0.51560000       0.62520000       0.73500000
    72  H          0.48440000       0.12520000       0.76500000
    73  C          0.62722000       0.22052000       0.25983110
    74  C          0.37278000       0.72052000       0.24016890
    75  C          0.37278000       0.77948000       0.74016890
    76  C          0.62722000       0.27948000       0.75983110
    77  H          0.62600000       0.26020000       0.21280000
    78  H          0.37400000       0.76020000       0.28720000
    79  H          0.37400000       0.73980000       0.78720000
    80  H          0.62600000       0.23980000       0.71280000
    81  C          0.71262000       0.09522000       0.29695110
    82  C          0.28738000       0.59522000       0.20304890
    83  C          0.28738000       0.90478000       0.70304890
    84  C          0.71262000       0.40478000       0.79695110
    85  H          0.77100000       0.04920000       0.27590000
    86  H          0.22900000       0.54920000       0.22410000
    87  H          0.22900000       0.95080000       0.72410000
    88  H          0.77100000       0.45080000       0.77590000
    89  C          0.71292000       0.03682000       0.36517110
    90  C          0.28708000       0.53682000       0.13482890
    91  C          0.28708000       0.96318000       0.63482890
    92  C          0.71292000       0.46318000       0.86517110
    93  H          0.77100000       0.94960000       0.39050000
    94  H          0.22900000       0.44960000       0.10950000
    95  H          0.22900000       0.05040000       0.60950000
    96  H          0.77100000       0.55040000       0.89050000
    97  C          0.62932000       0.10422000       0.39686110
    98  C          0.37068000       0.60422000       0.10313890
    99  C          0.37068000       0.89578000       0.60313890
   100  C          0.62932000       0.39578000       0.89686110
   101  H          0.62980000       0.06380000       0.44360000
   102  H          0.37020000       0.56380000       0.05640000
   103  H          0.37020000       0.93620000       0.55640000
   104  H          0.62980000       0.43620000       0.94360000
   105  C          0.21862000       0.91462000       0.35521110
   106  C          0.78138000       0.41462000       0.14478890
   107  C          0.78138000       0.08538000       0.64478890
   108  C          0.21862000       0.58538000       0.85521110
   109  O          0.15485130       0.78538160       0.32094700
   110  O          0.84514870       0.28538160       0.17905300
   111  O          0.84514870       0.21461840       0.67905300
   112  O          0.15485130       0.71461840       0.82094700
   113  H          0.21520000       0.67730000       0.34471100
   114  H          0.78480000       0.17730000       0.15528900
   115  H          0.78480000       0.32270000       0.65528900
   116  H          0.21520000       0.82270000       0.84471100
   117  O          0.33331140       0.92064160       0.40609800
   118  O          0.66668860       0.42064160       0.09390200
   119  O          0.66668860       0.07935840       0.59390200
   120  O          0.33331140       0.57935840       0.90609800
   121  C          0.14282000       0.06822000       0.32213100
   122  C          0.85718000       0.56822000       0.17786900
   123  C          0.85718000       0.93178000       0.67786900
   124  C          0.14282000       0.43178000       0.82213100
   125  C          0.07352000       0.14852000       0.35479110
   126  C          0.92648000       0.64852000       0.14520890
   127  C          0.92648000       0.85148000       0.64520890
   128  C          0.07352000       0.35148000       0.85479110
   129  H          0.03700000       0.25090000       0.33470000
   130  H          0.96300000       0.75090000       0.16530000
   131  H          0.96300000       0.74910000       0.66530000
   132  H          0.03700000       0.24910000       0.83470000
   133  C          0.05072000       0.08602000       0.42058110
   134  C          0.94928000       0.58602000       0.07941890
   135  C          0.94928000       0.91398000       0.57941890
   136  C          0.05072000       0.41398000       0.92058110
   137  O          0.07036150       0.94486160       0.44213800
   138  O          0.92963850       0.44486160       0.05786200
   139  O          0.92963850       0.05513840       0.55786200
   140  O          0.07036150       0.55513840       0.94213800
   141  O          0.00308140       0.19431160       0.45408800
   142  O         -0.00308140       0.69431160       0.04591200
   143  O         -0.00308140       0.80568840       0.54591200
   144  O          0.00308140       0.30568840       0.95408800
   145  H          0.97480000       0.14230000       0.49061300
   146  H          0.02520000       0.64230000       0.00938700
   147  H          0.02520000       0.85770000       0.50938700
   148  H          0.97480000       0.35770000       0.99061300
   149  C          0.16012000       0.12622000       0.25190110
   150  C          0.83988000       0.62622000       0.24809890
   151  C          0.83988000       0.87378000       0.74809890
   152  C          0.16012000       0.37378000       0.75190110
   153  H          0.11800000       0.23260000       0.23730000
   154  H          0.88200000       0.73260000       0.26270000
   155  H          0.88200000       0.76740000       0.76270000
   156  H          0.11800000       0.26740000       0.73730000
   157  H          0.11620000       0.05030000       0.20970000
   158  H          0.88380000       0.55030000       0.29030000
   159  H          0.88380000       0.94970000       0.79030000
   160  H          0.11620000       0.44970000       0.70970000
   161  H          0.25720000       0.13360000       0.26290000
   162  H          0.74280000       0.63360000       0.23710000
   163  H          0.74280000       0.86640000       0.73710000
   164  H          0.25720000       0.36640000       0.76290000
