data_ANPHXN
_symmetry_space_group_name_H-M    'P1'
_symmetry_Int_Tables_number       1
loop_
_symmetry_equiv_pos_site_id
_symmetry_equiv_pos_as_xyz
1 x,y,z
_cell_length_a                   7.0825
_cell_length_b                   11.3497
_cell_length_c                   13.8218
_cell_angle_alpha                90.0
_cell_angle_beta                 90.0
_cell_angle_gamma                103.944
loop_
_atom_site_label
_atom_site_type_symbol
_atom_site_fract_x
_atom_site_fract_y
_atom_site_fract_z
     1  O          0.85020000       0.16530000       0.22520000
     2  O          0.14980000       0.33470000       0.72520000
     3  O          0.14980000       0.83470000       0.77480000
     4  O          0.85020000       0.66530000       0.27480000
     5  Cl        -0.00680000       0.40040000       0.32020000
     6  Cl         0.00680000       0.09960000       0.82020000
     7  Cl         0.00680000       0.59960000       0.67980000
     8  Cl        -0.00680000       0.90040000       0.17980000
     9  Cl         0.74170000       0.09170000       0.02580000
    10  Cl         0.25830000       0.40830000       0.52580000
    11  Cl         0.25830000       0.90830000       0.97420000
    12  Cl         0.74170000       0.59170000       0.47420000
    13  C          0.97080000       0.45080000       0.03300000
    14  C          0.02920000       0.04920000       0.53300000
    15  C          0.02920000       0.54920000       0.96700000
    16  C          0.97080000       0.95080000       0.46700000
    17  C          0.00600000       0.47370000       0.13640000
    18  C         -0.00600000       0.02630000       0.63640000
    19  C         -0.00600000       0.52630000       0.86360000
    20  C          0.00600000       0.97370000       0.36360000
    21  C          0.95860000       0.37500000       0.19710000
    22  C          0.04140000       0.12500000       0.69710000
    23  C          0.04140000       0.62500000       0.80290000
    24  C          0.95860000       0.87500000       0.30290000
    25  C          0.87910000       0.25250000       0.16570000
    26  C          0.12090000       0.24750000       0.66570000
    27  C          0.12090000       0.74750000       0.83430000
    28  C          0.87910000       0.75250000       0.33430000
    29  C          0.84490000       0.23610000       0.06190000
    30  C          0.15510000       0.26390000       0.56190000
    31  C          0.15510000       0.76390000       0.93810000
    32  C          0.84490000       0.73610000       0.43810000
    33  C          0.89080000       0.32990000       0.00020000
    34  C          0.10920000       0.17010000       0.50020000
    35  C          0.10920000       0.67010000      -0.00020000
    36  C          0.89080000       0.82990000       0.49980000
    37  H          0.06360000       0.56290000       0.16460000
    38  H          0.93640000       0.93710000       0.66460000
    39  H          0.93640000       0.43710000       0.83540000
    40  H          0.06360000       0.06290000       0.33540000
    41  H          0.86980000       0.31400000       0.92540000
    42  H          0.13020000       0.18600000       0.42540000
    43  H          0.13020000       0.68600000       0.07460000
    44  H          0.86980000       0.81400000       0.57460000
    45  C          0.42340000       0.37880000       0.02580000
    46  C          0.57660000       0.12120000       0.52580000
    47  C          0.57660000       0.62120000       0.97420000
    48  C          0.42340000       0.87880000       0.47420000
    49  C          0.34830000       0.25190000       0.05310000
    50  C          0.65170000       0.24810000       0.55310000
    51  C          0.65170000       0.74810000       0.94690000
    52  C          0.34830000       0.75190000       0.44690000
    53  C          0.35410000       0.22310000       0.14900000
    54  C          0.64590000       0.27690000       0.64900000
    55  C          0.64590000       0.77690000       0.85100000
    56  C          0.35410000       0.72310000       0.35100000
    57  C          0.42570000       0.30600000       0.21970000
    58  C          0.57430000       0.19400000       0.71970000
    59  C          0.57430000       0.69400000       0.78030000
    60  C          0.42570000       0.80600000       0.28030000
    61  C          0.49790000       0.42770000       0.19910000
    62  C          0.50210000       0.07230000       0.69910000
    63  C          0.50210000       0.57230000       0.80090000
    64  C          0.49790000       0.92770000       0.30090000
    65  C          0.50330000       0.46740000       0.09890000
    66  C          0.49670000       0.03260000       0.59890000
    67  C          0.49670000       0.53260000       0.90110000
    68  C          0.50330000       0.96740000       0.40110000
    69  C          0.42730000       0.41180000       0.92840000
    70  C          0.57270000       0.08820000       0.42840000
    71  C          0.57270000       0.58820000       0.07160000
    72  C          0.42730000       0.91180000       0.57160000
    73  H          0.29440000       0.18430000       0.00230000
    74  H          0.70560000       0.31570000       0.50230000
    75  H          0.70560000       0.81570000      -0.00230000
    76  H          0.29440000       0.68430000       0.49770000
    77  H          0.29840000       0.13090000       0.16960000
    78  H          0.70160000       0.36910000       0.66960000
    79  H          0.70160000       0.86910000       0.83040000
    80  H          0.29840000       0.63090000       0.33040000
    81  H          0.42390000       0.27570000       0.29260000
    82  H          0.57610000       0.22430000       0.79260000
    83  H          0.57610000       0.72430000       0.70740000
    84  H          0.42390000       0.77570000       0.20740000
    85  H          0.55180000       0.48980000       0.25570000
    86  H          0.44820000       0.01020000       0.75570000
    87  H          0.44820000       0.51020000       0.74430000
    88  H          0.55180000      -0.01020000       0.24430000
    89  H          0.35640000       0.34160000       0.90120000
    90  H          0.64360000       0.15840000       0.40120000
    91  H          0.64360000       0.65840000       0.09880000
    92  H          0.35640000       0.84160000       0.59880000
