data_ANTPML01
_symmetry_space_group_name_H-M    'P1'
_symmetry_Int_Tables_number       1
loop_
_symmetry_equiv_pos_site_id
_symmetry_equiv_pos_as_xyz
1 x,y,z
_cell_length_a                   7.28126
_cell_length_b                   10.76847
_cell_length_c                   7.12467
_cell_angle_alpha                117.5167
_cell_angle_beta                 111.5138
_cell_angle_gamma                97.4378
loop_
_atom_site_label
_atom_site_type_symbol
_atom_site_fract_x
_atom_site_fract_y
_atom_site_fract_z
     1  C          0.81941000       0.04860000      -0.02218000
     2  C          0.18059000       0.95140000       0.02218000
     3  C          0.01844000       0.14136000       0.05431000
     4  C         -0.01844000       0.85864000       0.94569000
     5  C          0.80852000       0.90526000       0.92373000
     6  C          0.19148000       0.09474000       0.07627000
     7  C          0.09056000       0.29920000       0.12410000
     8  C          0.90944000       0.70080000       0.87590000
     9  C          0.62473000       0.77610000       0.83408000
    10  C          0.37527000       0.22390000       0.16592000
    11  O         -0.00305000       0.38238000       0.12605000
    12  O          0.00305000       0.61762000       0.87395000
    13  O          0.30691000       0.34247000       0.19132000
    14  O          0.69309000       0.65753000       0.80868000
    15  O          0.44490000       0.76506000       0.78672000
    16  O          0.55510000       0.23494000       0.21328000
    17  H          0.70000000       0.08100000       0.96500000
    18  H          0.30000000       0.91900000       0.03500000
    19  C          0.83335000       0.05478000       0.47179000
    20  C          0.16665000       0.94522000       0.52821000
    21  C          0.03614000       0.14841000       0.55465000
    22  C          0.96386000       0.85159000       0.44535000
    23  C          0.79318000       0.90769000       0.41695000
    24  C          0.20682000       0.09231000       0.58305000
    25  C          0.07765000       0.29848000       0.60939000
    26  C          0.92235000       0.70152000       0.39061000
    27  C          0.27707000       0.38701000       0.68698000
    28  C          0.72293000       0.61299000       0.31302000
    29  C          0.44633000       0.33151000       0.71517000
    30  C          0.55367000       0.66849000       0.28483000
    31  C          0.58821000       0.81145000       0.33532000
    32  C          0.41179000       0.18855000       0.66468000
    33  H          0.69400000       0.08700000       0.43000000
    34  H          0.30600000       0.91300000       0.57000000
    35  H          0.96700000       0.33000000       0.59800000
    36  H          0.03300000       0.67000000       0.40200000
    37  H          0.29400000       0.47100000       0.70700000
    38  H          0.70600000       0.52900000       0.29300000
    39  H          0.58100000       0.39100000       0.77300000
    40  H          0.41900000       0.60900000       0.22700000
    41  H          0.48600000       0.85400000       0.32200000
    42  H          0.51400000       0.14600000       0.67800000
