data_ANUPIJ
_symmetry_space_group_name_H-M    'P1'
_symmetry_Int_Tables_number       1
loop_
_symmetry_equiv_pos_site_id
_symmetry_equiv_pos_as_xyz
1 x,y,z
_cell_length_a                   6.35972
_cell_length_b                   8.68652
_cell_length_c                   11.22163
_cell_angle_alpha                69.1821
_cell_angle_beta                 89.5011
_cell_angle_gamma                81.8661
loop_
_atom_site_label
_atom_site_type_symbol
_atom_site_fract_x
_atom_site_fract_y
_atom_site_fract_z
     1  I          0.73667600       0.46036300       0.34781300
     2  I          0.26332400       0.53963700       0.65218700
     3  I          0.26952400       0.93258300       0.82832700
     4  I          0.73047600       0.06741700       0.17167300
     5  F          0.65756000       0.56944000       0.04573000
     6  F          0.34244000       0.43056000       0.95427000
     7  F          0.86065000       0.74914000       0.84758000
     8  F          0.13935000       0.25086000       0.15242000
     9  F          0.34385000       0.82764000       0.13093000
    10  F          0.65615000       0.17236000       0.86907000
    11  F          0.14205000       0.64555000       0.32843000
    12  F          0.85795000       0.35445000       0.67157000
    13  C          0.07227000       0.66845000       0.21004000
    14  C          0.92773000       0.33155000       0.78996000
    15  C          0.89564000       0.60055000       0.19324000
    16  C          0.10436000       0.39945000       0.80676000
    17  C          0.82694000       0.63125000       0.06854000
    18  C          0.17306000       0.36875000       0.93146000
    19  C          0.93214000       0.72675000       0.96606000
    20  C          0.06786000       0.27325000       0.03394000
    21  C          0.10916000       0.79415000       0.98276000
    22  C          0.89084000       0.20585000       0.01724000
    23  C          0.17717000       0.76245000       0.10834000
    24  C          0.82283000       0.23755000       0.89166000
    25  S          0.50760180       0.15565140       0.56325100
    26  S          0.49239820       0.84434860       0.43674900
    27  C          0.32976000       0.16155000       0.43614000
    28  C          0.67024000       0.83845000       0.56386000
    29  H          0.20060000       0.23690000       0.43380000
    30  H          0.79940000       0.76310000       0.56620000
    31  H          0.39640000       0.20570000       0.35540000
    32  H          0.60360000       0.79430000       0.64460000
    33  C          0.72876000       0.00775000       0.54974000
    34  C          0.27124000      -0.00775000       0.45026000
    35  H          0.78910000       0.05410000       0.46710000
    36  H          0.21090000       0.94590000       0.53290000
    37  H          0.83750000      -0.00750000       0.61460000
    38  H          0.16250000       0.00750000       0.38540000
