data_ANUQAC
_symmetry_space_group_name_H-M    'P1'
_symmetry_Int_Tables_number       1
loop_
_symmetry_equiv_pos_site_id
_symmetry_equiv_pos_as_xyz
1 x,y,z
_cell_length_a                   15.86422
_cell_length_b                   8.33291
_cell_length_c                   18.44373
_cell_angle_alpha                90.0
_cell_angle_beta                 106.5421
_cell_angle_gamma                90.0
loop_
_atom_site_label
_atom_site_type_symbol
_atom_site_fract_x
_atom_site_fract_y
_atom_site_fract_z
     1  C          0.04512000       0.31824000       0.65915160
     2  C          0.95488000       0.81824000       0.84084840
     3  C          0.95488000       0.68176000       0.34084840
     4  C          0.04512000       0.18176000       0.15915160
     5  C          0.02452000       0.22064000       0.71321190
     6  C          0.97548000       0.72064000       0.78678810
     7  C          0.97548000       0.77936000       0.28678810
     8  C          0.02452000       0.27936000       0.21321190
     9  H          0.06700000       0.14720000       0.74170000
    10  H          0.93300000       0.64720000       0.75830000
    11  H          0.93300000       0.85280000       0.25830000
    12  H          0.06700000       0.35280000       0.24170000
    13  C          0.94247000       0.23035000       0.72552000
    14  C          0.05753000       0.73035000       0.77448000
    15  C          0.05753000       0.76965000       0.27448000
    16  C          0.94247000       0.26965000       0.22552000
    17  H          0.92920000       0.16400000       0.76270000
    18  H          0.07080000       0.66400000       0.73730000
    19  H          0.07080000       0.83600000       0.23730000
    20  H          0.92920000       0.33600000       0.26270000
    21  C          0.88037000       0.33534000       0.68432000
    22  C          0.11963000       0.83534000       0.81568000
    23  C          0.11963000       0.66466000       0.31568000
    24  C          0.88037000       0.16466000       0.18432000
    25  H          0.82380000       0.34010000       0.69230000
    26  H          0.17620000       0.84010000       0.80770000
    27  H          0.17620000       0.65990000       0.30770000
    28  H          0.82380000       0.15990000       0.19230000
    29  C          0.90028000       0.43384000       0.63132000
    30  C          0.09972000       0.93384000       0.86868000
    31  C          0.09972000       0.56616000       0.36868000
    32  C          0.90028000       0.06616000       0.13132000
    33  H          0.85740000       0.50660000       0.60290000
    34  H          0.14260000       0.00660000       0.89710000
    35  H          0.14260000       0.49340000       0.39710000
    36  H          0.85740000      -0.00660000       0.10290000
    37  C          0.98238000       0.42714000       0.61932180
    38  C          0.01762000       0.92714000       0.88067820
    39  C          0.01762000       0.57286000       0.38067820
    40  C          0.98238000       0.07286000       0.11932180
    41  H         -0.00390000       0.49720000       0.58370000
    42  H          0.00390000      -0.00280000       0.91630000
    43  H          0.00390000       0.50280000       0.41630000
    44  H         -0.00390000       0.00280000       0.08370000
    45  C          0.13782000       0.22443000       0.55091170
    46  C          0.86218000       0.72443000       0.94908830
    47  C          0.86218000       0.77557000       0.44908830
    48  C          0.13782000       0.27557000       0.05091170
    49  C          0.05622000       0.18674000       0.50137180
    50  C          0.94378000       0.68674000      -0.00137180
    51  C          0.94378000       0.81326000       0.49862820
    52  C          0.05622000       0.31326000       0.00137180
    53  H          0.00440000       0.20050000       0.51680000
    54  H         -0.00440000       0.70050000       0.98320000
    55  H         -0.00440000       0.79950000       0.48320000
    56  H          0.00440000       0.29950000       0.01680000
    57  C          0.05013000       0.12884000       0.42942000
    58  C          0.94987000       0.62884000       0.07058000
    59  C          0.94987000       0.87116000       0.57058000
    60  C          0.05013000       0.37116000       0.92942000
    61  H         -0.00580000       0.10420000       0.39550000
    62  H          0.00580000       0.60420000       0.10450000
    63  H          0.00580000       0.89580000       0.60450000
    64  H         -0.00580000       0.39580000       0.89550000
    65  C          0.12533000       0.10694000       0.40702000
    66  C          0.87467000       0.60694000       0.09298000
    67  C          0.87467000       0.89306000       0.59298000
    68  C          0.12533000       0.39306000       0.90702000
    69  H          0.12110000       0.06750000       0.35780000
    70  H          0.87890000       0.56750000       0.14220000
    71  H          0.87890000       0.93250000       0.64220000
    72  H          0.12110000       0.43250000       0.85780000
    73  C          0.20653000       0.14214000       0.45602000
    74  C          0.79347000       0.64214000       0.04398000
    75  C          0.79347000       0.85786000       0.54398000
    76  C          0.20653000       0.35786000       0.95602000
    77  H          0.25820000       0.12580000       0.44070000
    78  H          0.74180000       0.62580000       0.05930000
    79  H          0.74180000       0.87420000       0.55930000
    80  H          0.25820000       0.37420000       0.94070000
    81  C          0.21312000       0.20084000       0.52732000
    82  C          0.78688000       0.70084000       0.97268000
    83  C          0.78688000       0.79916000       0.47268000
    84  C          0.21312000       0.29916000       0.02732000
    85  H          0.26930000       0.22540000       0.56060000
    86  H          0.73070000       0.72540000       0.93940000
    87  H          0.73070000       0.77460000       0.43940000
    88  H          0.26930000       0.27460000       0.06060000
    89  C          0.19282000       0.50374000       0.64378170
    90  C          0.80718000       0.00374000       0.85621830
    91  C          0.80718000       0.49626000       0.35621830
    92  C          0.19282000      -0.00374000       0.14378170
    93  C          0.16512000       0.60094000       0.58073190
    94  C          0.83488000       0.10094000       0.91926810
    95  C          0.83488000       0.39906000       0.41926810
    96  C          0.16512000       0.89906000       0.08073190
    97  H          0.12780000       0.55820000       0.53510000
    98  H          0.87220000       0.05820000       0.96490000
    99  H          0.87220000       0.44180000       0.46490000
   100  H          0.12780000       0.94180000       0.03510000
   101  C          0.19142000       0.76064000       0.58352000
   102  C          0.80858000       0.26064000       0.91648000
   103  C          0.80858000       0.23936000       0.41648000
   104  C          0.19142000       0.73936000       0.08352000
   105  H          0.17160000       0.82750000       0.54030000
   106  H          0.82840000       0.32750000       0.95970000
   107  H          0.82840000       0.17250000       0.45970000
   108  H          0.17160000       0.67250000       0.04030000
   109  C          0.24682000       0.82034000       0.64992000
   110  C          0.75318000       0.32034000       0.85008000
   111  C          0.75318000       0.17966000       0.35008000
   112  C          0.24682000       0.67966000       0.14992000
   113  H          0.26390000       0.92990000       0.65270000
   114  H          0.73610000       0.42990000       0.84730000
   115  H          0.73610000       0.07010000       0.34730000
   116  H          0.26390000       0.57010000       0.15270000
   117  C          0.27722000       0.72304000       0.71207190
   118  C          0.72278000       0.22304000       0.78792810
   119  C          0.72278000       0.27696000       0.28792810
   120  C          0.27722000       0.77696000       0.21207190
   121  H          0.31720000       0.76430000       0.75680000
   122  H          0.68280000       0.26430000       0.74320000
   123  H          0.68280000       0.23570000       0.24320000
   124  H          0.31720000       0.73570000       0.25680000
   125  C          0.24982000       0.56454000       0.70961180
   126  C          0.75018000       0.06454000       0.79038820
   127  C          0.75018000       0.43546000       0.29038820
   128  C          0.24982000       0.93546000       0.20961180
   129  H          0.27000000       0.49780000       0.75290000
   130  H          0.73000000      -0.00220000       0.74710000
   131  H          0.73000000       0.50220000       0.24710000
   132  H          0.27000000       0.00220000       0.25290000
   133  O          0.21293150       0.20053000       0.70491130
   134  O          0.78706850       0.70053000       0.79508870
   135  O          0.78706850       0.79947000       0.29508870
   136  O          0.21293150       0.29947000       0.20491130
   137  P          0.15298500       0.30087900       0.64533400
   138  P          0.84701500       0.80087900       0.85466600
   139  P          0.84701500       0.69912100       0.35466600
   140  P          0.15298500       0.19912100       0.14533400
   141  C          0.43762000       0.44784000       0.43340170
   142  C          0.56238000       0.94784000       0.06659830
   143  C          0.56238000       0.55216000       0.56659830
   144  C          0.43762000       0.05216000       0.93340170
   145  C          0.41352000       0.49224000       0.49669180
   146  C          0.58648000      -0.00776000       0.00330820
   147  C          0.58648000       0.50776000       0.50330820
   148  C          0.41352000       0.00776000      -0.00330820
   149  C          0.47392000       0.54344000       0.56175180
   150  C          0.52608000       0.04344000       0.93824820
   151  C          0.52608000       0.45656000       0.43824820
   152  C          0.47392000       0.95656000       0.06175180
   153  F          0.32807130       0.48743000       0.49522120
   154  F          0.67192870      -0.01257000       0.00477880
   155  F          0.67192870       0.51257000       0.50477880
   156  F          0.32807130       0.01257000      -0.00477880
   157  F          0.44564140       0.58423000       0.62137110
   158  F          0.55435860       0.08423000       0.87862890
   159  F          0.55435860       0.41577000       0.37862890
   160  F          0.44564140       0.91577000       0.12137110
   161  I          0.34438114       0.37270300       0.33417011
   162  I          0.65561886       0.87270300       0.16582989
   163  I          0.65561886       0.62729700       0.66582989
   164  I          0.34438114       0.12729700       0.83417011
   165  C          0.50942000       0.53114000       0.92765180
   166  C          0.49058000       0.03114000       0.57234820
   167  C          0.49058000       0.46886000       0.07234820
   168  C          0.50942000       0.96886000       0.42765180
   169  C          0.43742000       0.58604000       0.94796190
   170  C          0.56258000       0.08604000       0.55203810
   171  C          0.56258000       0.41396000       0.05203810
   172  C          0.43742000       0.91396000       0.44796190
   173  C          0.57162000       0.44444000       0.98102000
   174  C          0.42838000       0.94444000       0.51898000
   175  C          0.42838000       0.55556000       0.01898000
   176  C          0.57162000       0.05556000       0.48102000
   177  F          0.37421150       0.66903000       0.89894120
   178  F          0.62578850       0.16903000       0.60105880
   179  F          0.62578850       0.33097000       0.10105880
   180  F          0.37421150       0.83097000       0.39894120
   181  F          0.64282140       0.38563000       0.96471120
   182  F          0.35717860       0.88563000       0.53528880
   183  F          0.35717860       0.61437000       0.03528880
   184  F          0.64282140       0.11437000       0.46471120
   185  I          0.52520719       0.57770400       0.82175315
   186  I          0.47479281       0.07770400       0.67824685
   187  I          0.47479281       0.42229600       0.17824685
   188  I          0.52520719       0.92229600       0.32175315
