data_APANBZ
_symmetry_space_group_name_H-M    'P1'
_symmetry_Int_Tables_number       1
loop_
_symmetry_equiv_pos_site_id
_symmetry_equiv_pos_as_xyz
1 x,y,z
_cell_length_a                   8.791
_cell_length_b                   16.055
_cell_length_c                   6.515
_cell_angle_alpha                92.87
_cell_angle_beta                 102.16
_cell_angle_gamma                98.98
loop_
_atom_site_label
_atom_site_type_symbol
_atom_site_fract_x
_atom_site_fract_y
_atom_site_fract_z
     1  C          0.19141000       0.19532000       0.22307000
     2  C          0.80859000       0.80468000       0.77693000
     3  C          0.35489000       0.21025000       0.27006000
     4  C          0.64511000       0.78975000       0.72994000
     5  C          0.42853000       0.29391000       0.30142000
     6  C          0.57147000       0.70609000       0.69858000
     7  C          0.34631000       0.36098000       0.28614000
     8  C          0.65369000       0.63902000       0.71386000
     9  C          0.18331000       0.34152000       0.23533000
    10  C          0.81669000       0.65848000       0.76467000
    11  C          0.10192000       0.25934000       0.20398000
    12  C          0.89808000       0.74066000       0.79602000
    13  H          0.41260000       0.16780000       0.28130000
    14  H          0.58740000       0.83220000       0.71870000
    15  H          0.39650000       0.41580000       0.30880000
    16  H          0.60350000       0.58420000       0.69120000
    17  H         -0.00560000       0.24760000       0.17620000
    18  H          0.00560000       0.75240000       0.82380000
    19  N          0.10903000       0.10688000       0.19468000
    20  N          0.89097000       0.89312000       0.80532000
    21  N          0.60290000       0.31290000       0.35497000
    22  N          0.39710000       0.68710000       0.64503000
    23  N          0.09210000       0.41173000       0.21236000
    24  N          0.90790000       0.58827000       0.78764000
    25  O          0.96473000       0.09488000       0.15424000
    26  O          0.03527000       0.90512000       0.84576000
    27  O          0.19041000       0.05121000       0.21740000
    28  O          0.80959000       0.94879000       0.78260000
    29  O          0.67373000       0.25269000       0.36445000
    30  O          0.32627000       0.74731000       0.63555000
    31  O          0.66494000       0.38730000       0.38734000
    32  O          0.33506000       0.61270000       0.61266000
    33  O          0.16608000       0.48380000       0.24145000
    34  O          0.83392000       0.51620000       0.75855000
    35  O          0.94809000       0.39304000       0.16511000
    36  O          0.05191000       0.60696000       0.83489000
    37  C          0.52054000       0.60269000       0.17141000
    38  C          0.47946000       0.39731000       0.82859000
    39  C          0.68265000       0.62708000       0.22143000
    40  C          0.31735000       0.37292000       0.77857000
    41  C          0.74375000       0.71526000       0.25050000
    42  C          0.25625000       0.28474000       0.74950000
    43  C          0.91157000       0.72647000       0.30302000
    44  C          0.08843000       0.27353000       0.69698000
    45  C         -0.00521000       0.80794000       0.33883000
    46  C          0.00521000       0.19206000       0.66117000
    47  C          0.90986000       0.87513000       0.32008000
    48  C          0.09014000       0.12487000       0.67992000
    49  C          0.74417000       0.86537000       0.27151000
    50  C          0.25583000       0.13463000       0.72849000
    51  C          0.65466000       0.78011000       0.23258000
    52  C          0.34534000       0.21989000       0.76742000
    53  C          0.48444000       0.75259000       0.17850000
    54  C          0.51556000       0.24741000       0.82150000
    55  C          0.42584000       0.66533000       0.14993000
    56  C          0.57416000       0.33467000       0.85007000
    57  C          0.81783000       0.58344000       0.25747000
    58  C          0.18217000       0.41656000       0.74253000
    59  C          0.95285000       0.64198000       0.30647000
    60  C          0.04715000       0.35802000       0.69353000
    61  C          0.67881000       0.94244000       0.26921000
    62  C          0.32119000       0.05756000       0.73079000
    63  C          0.52593000       0.95425000       0.23084000
    64  C          0.47407000       0.04575000       0.76916000
    65  C          0.38487000       0.89301000       0.17399000
    66  C          0.61513000       0.10699000       0.82601000
    67  C          0.36798000       0.80755000       0.15050000
    68  C          0.63202000       0.19245000       0.84950000
    69  H          0.47420000       0.54400000       0.15130000
    70  H          0.52580000       0.45600000       0.84870000
    71  H          0.10740000       0.81900000       0.37460000
    72  H          0.89260000       0.18100000       0.62540000
    73  H          0.96720000       0.93080000       0.34100000
    74  H          0.03280000       0.06920000       0.65900000
    75  H          0.31080000       0.64800000       0.11630000
    76  H          0.68920000       0.35200000       0.88370000
    77  H          0.81470000       0.52240000       0.24610000
    78  H          0.18530000       0.47760000       0.75390000
    79  H          0.05950000       0.62770000       0.33670000
    80  H          0.94050000       0.37230000       0.66330000
    81  H          0.75880000      -0.00780000       0.30900000
    82  H          0.24120000       0.00780000       0.69100000
    83  H          0.51410000       0.01400000       0.23810000
    84  H          0.48590000       0.98600000       0.76190000
    85  H          0.28900000       0.91660000       0.14910000
    86  H          0.71100000       0.08340000       0.85090000
    87  H          0.25750000       0.77550000       0.10530000
    88  H          0.74250000       0.22450000       0.89470000
