data_APEGUZ
_symmetry_space_group_name_H-M    'P1'
_symmetry_Int_Tables_number       1
loop_
_symmetry_equiv_pos_site_id
_symmetry_equiv_pos_as_xyz
1 x,y,z
_cell_length_a                   14.1154
_cell_length_b                   14.1874
_cell_length_c                   14.4794
_cell_angle_alpha                119.1539
_cell_angle_beta                 92.75611
_cell_angle_gamma                113.3149
loop_
_atom_site_label
_atom_site_type_symbol
_atom_site_fract_x
_atom_site_fract_y
_atom_site_fract_z
     1  S          0.00136300       0.38612400       0.86505300
     2  S         -0.00136300       0.61387600       0.13494700
     3  C          0.01961140       0.33897150       0.95147130
     4  C          0.98038860       0.66102850       0.04852870
     5  C          0.12785140       0.37280150       0.00707130
     6  C          0.87214860       0.62719850      -0.00707130
     7  N          0.21243120       0.44708130      -0.00753890
     8  N          0.78756880       0.55291870       0.00753890
     9  C          0.31190150       0.47662170       0.04153150
    10  C          0.68809850       0.52337830       0.95846850
    11  H          0.37180000       0.52750000       0.03050000
    12  H          0.62820000       0.47250000       0.96950000
    13  C          0.33254160       0.43732180       0.10727170
    14  C          0.66745840       0.56267820       0.89272830
    15  H          0.40460000       0.46140000       0.14080000
    16  H          0.59540000       0.53860000       0.85920000
    17  C          0.24602170       0.36234180       0.12296160
    18  C          0.75397830       0.63765820       0.87703840
    19  H          0.25740000       0.33440000       0.16810000
    20  H          0.74260000       0.66560000       0.83190000
    21  C          0.14286160       0.32886170       0.07196150
    22  C          0.85713840       0.67113830       0.92803850
    23  H          0.08220000       0.27630000       0.08070000
    24  H          0.91780000       0.72370000       0.91930000
    25  C          0.92219860       0.26946150       0.95758140
    26  C          0.07780140       0.73053850       0.04241860
    27  H          0.91580000       0.23550000       0.00100000
    28  H          0.08420000       0.76450000      -0.00100000
    29  C          0.86235860       0.31163150       0.83686140
    30  C          0.13764140       0.68836850       0.16313860
    31  C          0.79107860       0.31119150       0.75957140
    32  C          0.20892140       0.68880850       0.24042860
    33  N          0.83763880       0.38204130       0.72065120
    34  N          0.16236120       0.61795870       0.27934880
    35  C          0.77390850       0.37776180       0.64523160
    36  C          0.22609150       0.62223820       0.35476840
    37  H          0.80710000       0.42760000       0.61800000
    38  H          0.19290000       0.57240000       0.38200000
    39  C          0.66300850       0.30517180       0.60499160
    40  C          0.33699150       0.69482820       0.39500840
    41  H          0.62080000       0.30360000       0.55060000
    42  H          0.37920000       0.69640000       0.44940000
    43  C          0.61545850       0.23452170       0.64691160
    44  C          0.38454150       0.76547830       0.35308840
    45  H          0.53920000       0.18430000       0.62220000
    46  H          0.46080000       0.81570000       0.37780000
    47  C          0.67884850       0.23723170       0.72430160
    48  C          0.32115150       0.76276830       0.27569840
    49  H          0.64670000       0.18930000       0.75350000
    50  H          0.35330000       0.81070000       0.24650000
    51  C          0.83355860       0.25415150       0.89305140
    52  C          0.16644140       0.74584850       0.10694860
    53  H          0.76080000       0.20870000       0.88840000
    54  H          0.23920000       0.79130000       0.11160000
    55  S          0.09245300       0.16447400       0.63458300
    56  S          0.90754700       0.83552600       0.36541700
    57  C          0.11274140       0.13410140       0.73434130
    58  C          0.88725860       0.86589860       0.26565870
    59  C          0.22028140       0.16179140       0.78573130
    60  C          0.77971860       0.83820860       0.21426870
    61  N          0.30480120       0.22213130       0.76053110
    62  N          0.69519880       0.77786870       0.23946890
    63  C          0.40306150       0.24512170       0.80523150
    64  C          0.59693850       0.75487830       0.19476850
    65  H          0.46250000       0.28760000       0.78760000
    66  H          0.53750000       0.71240000       0.21240000
    67  C          0.42320160       0.21073180       0.87553160
    68  C          0.57679840       0.78926820       0.12446840
    69  H          0.49420000       0.22850000       0.90480000
    70  H          0.50580000       0.77150000       0.09520000
    71  C          0.33629170       0.14953180       0.90190160
    72  C          0.66370830       0.85046820       0.09809840
    73  H          0.34680000       0.12490000       0.95020000
    74  H          0.65320000       0.87510000       0.04980000
    75  C          0.23459160       0.12499170       0.85701150
    76  C          0.76540840       0.87500830       0.14298850
    77  H          0.17430000       0.08330000       0.87430000
    78  H          0.82570000       0.91670000       0.12570000
    79  C          0.01736150       0.08259160       0.75356140
    80  C         -0.01736150       0.91740840       0.24643860
    81  H          0.01180000       0.05920000       0.80520000
    82  H         -0.01180000       0.94080000       0.19480000
    83  C          0.95572860       0.10751140       0.61953130
    84  C          0.04427140       0.89248860       0.38046870
    85  C          0.88386860       0.10471140       0.54055140
    86  C          0.11613140       0.89528860       0.45944860
    87  N          0.92950880       0.15643130       0.48557120
    88  N          0.07049120       0.84356870       0.51442880
    89  C          0.86430840       0.15248170       0.41136150
    90  C          0.13569160       0.84751830       0.58863850
    91  H          0.89640000       0.18850000       0.37260000
    92  H          0.10360000       0.81150000       0.62740000
    93  C          0.75327840       0.09891170       0.38849160
    94  C          0.24672160       0.90108830       0.61150840
    95  H          0.71000000       0.09730000       0.33490000
    96  H          0.29000000       0.90270000       0.66510000
    97  C          0.70687840       0.04774170       0.44583170
    98  C          0.29312160       0.95225830       0.55416830
    99  H          0.63090000       0.01170000       0.43330000
   100  H          0.36910000      -0.01170000       0.56670000
   101  C          0.77186850       0.04932160       0.52156160
   102  C          0.22813150       0.95067840       0.47843840
   103  H          0.74070000       0.01310000       0.56050000
   104  H          0.25930000      -0.01310000       0.43950000
   105  C          0.92875850       0.06795150       0.68918140
   106  C          0.07124150       0.93204850       0.31081860
   107  H          0.85730000       0.03410000       0.69330000
   108  H          0.14270000       0.96590000       0.30670000
   109  Cl         0.86923400       0.96046400       0.93737400
   110  Cl         0.13076600       0.03953600       0.06262600
   111  Cl         0.53339400       0.94448400       0.72100400
   112  Cl         0.46660600       0.05551600       0.27899600
   113  C          0.77923140       0.90415150       0.81396130
   114  C          0.22076860       0.09584850       0.18603870
   115  C          0.70228140       0.94167150       0.81625140
   116  C          0.29771860       0.05832850       0.18374860
   117  H          0.69670000      -0.00420000       0.88530000
   118  H          0.30330000       0.00420000       0.11470000
   119  C          0.63335140       0.90059150       0.71837140
   120  C          0.36664860       0.09940850       0.28162860
   121  C          0.64220130       0.82187150       0.61637130
   122  C          0.35779870       0.17812850       0.38362870
   123  C          0.71907130       0.78395150       0.61541140
   124  C          0.28092870       0.21604850       0.38458860
   125  H          0.72470000       0.72990000       0.54640000
   126  H          0.27530000       0.27010000       0.45360000
   127  C          0.78813140       0.82330150       0.71335140
   128  C          0.21186860       0.17669850       0.28664860
   129  O          0.57613100       0.78765120       0.52217100
   130  O          0.42386900       0.21234880       0.47782900
   131  H          0.58861800       0.74020000       0.47041900
   132  H          0.41138200       0.25980000       0.52958100
   133  O          0.86505110       0.78922120       0.71536110
   134  O          0.13494890       0.21077880       0.28463890
   135  H          0.86731800       0.74320000       0.65131900
   136  H          0.13268200       0.25680000       0.34868100
   137  Cl         0.53532400       0.52573400       0.63747400
   138  Cl         0.46467600       0.47426600       0.36252600
   139  Cl         0.43995400       0.84991400       0.95682400
   140  Cl         0.56004600       0.15008600       0.04317600
   141  C          0.45844130       0.55596160       0.72746130
   142  C          0.54155870       0.44403840       0.27253870
   143  C          0.37976130       0.45936150       0.72933130
   144  C          0.62023870       0.54063850       0.27066870
   145  C          0.31982130       0.48522150       0.80275130
   146  C          0.68017870       0.51477850       0.19724870
   147  H          0.26560000       0.42010000       0.80430000
   148  H          0.73440000       0.57990000       0.19570000
   149  C          0.33799140       0.60500150       0.87410130
   150  C          0.66200860       0.39499850       0.12589870
   151  C          0.41674140       0.69992150       0.86985140
   152  C          0.58325860       0.30007850       0.13014860
   153  C          0.47625140       0.67497160       0.79634140
   154  C          0.52374860       0.32502840       0.20365860
   155  H          0.52930000       0.73960000       0.79330000
   156  H          0.47070000       0.26040000       0.20670000
   157  O          0.36363100       0.34266110       0.65968100
   158  O          0.63636900       0.65733890       0.34031900
   159  H          0.33241700       0.30020000       0.68411700
   160  H          0.66758300       0.69980000       0.31588300
   161  O          0.28270110       0.63386120       0.94870100
   162  O          0.71729890       0.36613880       0.05129900
   163  H          0.24881900       0.57520000       0.95081900
   164  H          0.75118100       0.42480000       0.04918100
   165  Cl         0.30776400       0.52155400       0.51233400
   166  Cl         0.69223600       0.47844600       0.48766600
   167  Cl         0.19098400       0.82532400       0.82859400
   168  Cl         0.80901600       0.17467600       0.17140600
   169  C          0.23969140       0.66144160       0.66925140
   170  C          0.76030860       0.33855840       0.33074860
   171  H          0.29900000       0.73060000       0.67760000
   172  H          0.70100000       0.26940000       0.32240000
   173  C          0.22159140       0.54314160       0.59285140
   174  C          0.77840860       0.45685840       0.40714860
   175  C          0.13585140       0.44135150       0.58067130
   176  C          0.86414860       0.55864850       0.41932870
   177  C          0.06793130       0.45954150       0.64628130
   178  C          0.93206870       0.54045850       0.35371870
   179  H          0.00960000       0.39050000       0.63910000
   180  H         -0.00960000       0.60950000       0.36090000
   181  C          0.08392130       0.57703150       0.72215130
   182  C          0.91607870       0.42296850       0.27784870
   183  C          0.17078140       0.67790150       0.73312140
   184  C          0.82921860       0.32209850       0.26687860
   185  O          0.12192100       0.32655110       0.50496100
   186  O          0.87807900       0.67344890       0.49503900
   187  H          0.06211800       0.26920000       0.50311700
   188  H          0.93788200       0.73080000       0.49688300
   189  O          0.01805100       0.59732110       0.78563100
   190  O          0.98194900       0.40267890       0.21436900
   191  H          0.96748200       0.52820000       0.77061800
   192  H          0.03251800       0.47180000       0.22938200
