data_APOMIC
_symmetry_space_group_name_H-M    'P1'
_symmetry_Int_Tables_number       1
loop_
_symmetry_equiv_pos_site_id
_symmetry_equiv_pos_as_xyz
1 x,y,z
_cell_length_a                   7.29174
_cell_length_b                   12.14927
_cell_length_c                   15.21089
_cell_angle_alpha                68.0591
_cell_angle_beta                 80.6341
_cell_angle_gamma                86.1181
loop_
_atom_site_label
_atom_site_type_symbol
_atom_site_fract_x
_atom_site_fract_y
_atom_site_fract_z
     1  C          0.24113000       0.71814190       0.10088150
     2  C          0.75887000       0.28185810       0.89911850
     3  N          0.38683000       0.78024160       0.09945130
     4  N          0.61317000       0.21975840       0.90054870
     5  H          0.37150000       0.85420000       0.09590000
     6  H          0.62850000       0.14580000       0.90410000
     7  H          0.49790000       0.74720000       0.10210000
     8  H          0.50210000       0.25280000       0.89790000
     9  N          0.07323000       0.76701160       0.09693140
    10  N          0.92677000       0.23298840       0.90306860
    11  H          0.97710000       0.72460000       0.10040000
    12  H          0.02290000       0.27540000       0.89960000
    13  H          0.05760000       0.84180000       0.09080000
    14  H          0.94240000       0.15820000       0.90920000
    15  N          0.26383000       0.60538170       0.11011160
    16  N          0.73617000       0.39461830       0.88988840
    17  H          0.16750000       0.56320000       0.11360000
    18  H          0.83250000       0.43680000       0.88640000
    19  H          0.37520000       0.57270000       0.11270000
    20  H          0.62480000       0.42730000       0.88730000
    21  C          0.23583000       0.21964190       0.09799140
    22  C          0.76417000       0.78035810       0.90200860
    23  N          0.25993000       0.10788170       0.10506150
    24  N          0.74007000       0.89211830       0.89493850
    25  H          0.16420000       0.06570000       0.10780000
    26  H          0.83580000       0.93430000       0.89220000
    27  H          0.37170000       0.07570000       0.10700000
    28  H          0.62830000       0.92430000       0.89300000
    29  N          0.38063000       0.28233160       0.09712130
    30  N          0.61937000       0.71766840       0.90287870
    31  H          0.49160000       0.24920000       0.10120000
    32  H          0.50840000       0.75080000       0.89880000
    33  H          0.36480000       0.35670000       0.09240000
    34  H          0.63520000       0.64330000       0.90760000
    35  N          0.06723000       0.26774160       0.09505140
    36  N          0.93277000       0.73225840       0.90494860
    37  H          0.97170000       0.22540000       0.09780000
    38  H          0.02830000       0.77460000       0.90220000
    39  H          0.05070000       0.34200000       0.09030000
    40  H          0.94930000       0.65800000       0.90970000
    41  C          0.65963000       0.92768180       0.25792140
    42  C          0.34037000       0.07231820       0.74207860
    43  C          0.52673000       0.97160190       0.31285160
    44  C          0.47327000       0.02839810       0.68714840
    45  H          0.47690000       0.04910000       0.28530000
    46  H          0.52310000       0.95090000       0.71470000
    47  C          0.46663000       0.90273190       0.40772160
    48  C          0.53337000       0.09726810       0.59227840
    49  H          0.37510000       0.93350000       0.44470000
    50  H          0.62490000       0.06650000       0.55530000
    51  C          0.53833000       0.78845180       0.45005150
    52  C          0.46167000       0.21154820       0.54994850
    53  C          0.67103000       0.74496190       0.39296150
    54  C          0.32897000       0.25503810       0.60703850
    55  H          0.72090000       0.66740000       0.42010000
    56  H          0.27910000       0.33260000       0.57990000
    57  C          0.73063000       0.81317190       0.29777150
    58  C          0.26937000       0.18682810       0.70222850
    59  H          0.81930000       0.78210000       0.25980000
    60  H          0.18070000       0.21790000       0.74020000
    61  C          0.34463000       0.57346180       0.74219140
    62  C          0.65537000       0.42653820       0.25780860
    63  C          0.33203000       0.69695190       0.71222150
    64  C          0.66797000       0.30304810       0.28777850
    65  H          0.27950000       0.73320000       0.75620000
    66  H          0.72050000       0.26680000       0.24380000
    67  C          0.39643000       0.76631180       0.61785150
    68  C          0.60357000       0.23368820       0.38214850
    69  H          0.38700000       0.85030000       0.59750000
    70  H          0.61300000       0.14970000       0.40250000
    71  C          0.47533000       0.71423180       0.55186150
    72  C          0.52467000       0.28576820       0.44813850
    73  C          0.49113000       0.59052190       0.58503150
    74  C          0.50887000       0.40947810       0.41496850
    75  H          0.54820000       0.55370000       0.54220000
    76  H          0.45180000       0.44630000       0.45780000
    77  C          0.42553000       0.52073180       0.67869150
    78  C          0.57447000       0.47926820       0.32130850
    79  H          0.43600000       0.43680000       0.69950000
    80  H          0.56400000       0.56320000       0.30050000
    81  S          0.73923700       0.01585400       0.13717300
    82  S          0.26076300       0.98414600       0.86282700
    83  O          0.71922000       0.13919130       0.13104110
    84  O          0.28078000       0.86080870       0.86895890
    85  O          0.93372000       0.98232130       0.11812110
    86  O          0.06628000       0.01767870       0.88187890
    87  O          0.62172000       0.98924130       0.07867110
    88  O          0.37828000       0.01075870       0.92132890
    89  S          0.25588700       0.48563400       0.86178300
    90  S          0.74411300       0.51436600       0.13821700
    91  O          0.27442000       0.36214130       0.86835110
    92  O          0.72558000       0.63785870       0.13164890
    93  O          0.36822000       0.51189130       0.92255110
    94  O          0.63178000       0.48810870       0.07744890
    95  O          0.06102000       0.52087130       0.87710110
    96  O          0.93898000       0.47912870       0.12289890
    97  S          0.04226100       0.50923700       0.35939500
    98  S          0.95773900       0.49076300       0.64060500
    99  C          0.14603000       0.63242000       0.36372000
   100  C          0.85397000       0.36758000       0.63628000
   101  H          0.20900000       0.69010000       0.30740000
   102  H          0.79100000       0.30990000       0.69260000
   103  C          0.13463000       0.64172000       0.44272000
   104  C          0.86537000       0.35828000       0.55728000
   105  H          0.18540000       0.70450000       0.45380000
   106  H          0.81460000       0.29550000       0.54620000
   107  C          0.97077000       0.46022000       0.48226170
   108  C          0.02923000       0.53978000       0.51773830
   109  S          0.00170100       0.02041700       0.35871500
   110  S         -0.00170100       0.97958300       0.64128500
   111  C          0.09623000       0.14593000       0.35692000
   112  C          0.90377000       0.85407000       0.64308000
   113  H          0.14070000       0.20740000       0.29810000
   114  H          0.85930000       0.79260000       0.70190000
   115  C          0.10583000       0.15512000       0.44279170
   116  C          0.89417000       0.84488000       0.55720830
   117  H          0.15010000       0.22050000       0.45310000
   118  H          0.84990000       0.77950000       0.54690000
   119  C          0.96907000       0.96098000       0.48172180
   120  C          0.03093000       0.03902000       0.51827820
