data_APONEZ
_symmetry_space_group_name_H-M    'P1'
_symmetry_Int_Tables_number       1
loop_
_symmetry_equiv_pos_site_id
_symmetry_equiv_pos_as_xyz
1 x,y,z
_cell_length_a                   6.14955
_cell_length_b                   7.27256
_cell_length_c                   16.268814
_cell_angle_alpha                96.9335
_cell_angle_beta                 91.9135
_cell_angle_gamma                93.7435
loop_
_atom_site_label
_atom_site_type_symbol
_atom_site_fract_x
_atom_site_fract_y
_atom_site_fract_z
     1  S          0.83783700       0.24538600       0.38094300
     2  S          0.16216300       0.75461400       0.61905700
     3  O          0.94912000       0.13782000       0.43750800
     4  O          0.05088000       0.86218000       0.56249200
     5  O          0.92192000       0.43945180       0.38905900
     6  O          0.07808000       0.56054820       0.61094100
     7  O          0.60042000       0.22831180       0.38667800
     8  O          0.39958000       0.77168820       0.61332200
     9  C          0.89473000       0.14863000       0.27899120
    10  C          0.10527000       0.85137000       0.72100880
    11  C          0.10053000       0.18383000       0.24902130
    12  C          0.89947000       0.81617000       0.75097870
    13  H          0.20970000       0.25770000       0.28300000
    14  H          0.79030000       0.74230000       0.71700000
    15  C          0.14543000       0.11003000       0.16908130
    16  C          0.85457000       0.88997000       0.83091870
    17  H          0.28580000       0.13500000       0.14860000
    18  H          0.71420000       0.86500000       0.85140000
    19  C         -0.01237000      -0.00003000       0.11844120
    20  C          0.01237000       0.00003000       0.88155880
    21  C          0.78393000       0.96407000       0.15014130
    22  C          0.21607000       0.03593000       0.84985870
    23  H          0.67540000       0.88800000       0.11670000
    24  H          0.32460000       0.11200000       0.88330000
    25  C          0.73603000       0.03773000       0.22994130
    26  C          0.26397000       0.96227000       0.77005870
    27  H          0.59610000       0.01220000       0.25070000
    28  H          0.40390000      -0.01220000       0.74930000
    29  C          0.03294000       0.93067000       0.02979120
    30  C          0.96706000       0.06933000       0.97020880
    31  H          0.95060000       0.80950000       0.01340000
    32  H          0.04940000       0.19050000       0.98660000
    33  H          0.19020000       0.91170000       0.02540000
    34  H          0.80980000       0.08830000       0.97460000
    35  N          0.68073000       0.76682000       0.41523110
    36  N          0.31927000       0.23318000       0.58476890
    37  H          0.76010000       0.67040000       0.41510000
    38  H          0.23990000       0.32960000       0.58490000
    39  H          0.74440000       0.87880000       0.41560000
    40  H          0.25560000       0.12120000       0.58440000
    41  N          0.37063000       0.57342000       0.41429110
    42  N          0.62937000       0.42658000       0.58570890
    43  H          0.45110000       0.47770000       0.41420000
    44  H          0.54890000       0.52230000       0.58580000
    45  H          0.22760000       0.55670000       0.41400000
    46  H          0.77240000       0.44330000       0.58600000
    47  N          0.34493000       0.88892000       0.41272110
    48  N          0.65507000       0.11108000       0.58727890
    49  H          0.40880000       0.00040000       0.41160000
    50  H          0.59120000      -0.00040000       0.58840000
    51  H          0.20170000       0.87360000       0.41250000
    52  H          0.79830000       0.12640000       0.58750000
    53  C          0.46503000       0.74323000       0.41486110
    54  C          0.53497000       0.25677000       0.58513890
    55  S          0.72244100       0.45602800       0.10321400
    56  S          0.27755900       0.54397200       0.89678600
    57  C          0.49963000       0.51003000       0.04516130
    58  C          0.50037000       0.48997000       0.95483870
    59  C          0.33783000       0.57173000       0.09746130
    60  C          0.66217000       0.42827000       0.90253870
    61  H          0.20070000       0.60670000       0.07830000
    62  H          0.79930000       0.39330000       0.92170000
    63  C          0.40034000       0.57643000       0.18258150
    64  C          0.59966000       0.42357000       0.81741850
    65  H          0.30950000       0.61650000       0.22640000
    66  H          0.69050000       0.38350000       0.77360000
    67  C          0.60144000       0.51853000       0.19510150
    68  C          0.39856000       0.48147000       0.80489850
    69  H          0.66790000       0.51300000       0.24820000
    70  H          0.33210000       0.48700000       0.75180000
