data_APONOJ
_symmetry_space_group_name_H-M    'P1'
_symmetry_Int_Tables_number       1
loop_
_symmetry_equiv_pos_site_id
_symmetry_equiv_pos_as_xyz
1 x,y,z
_cell_length_a                   7.14269
_cell_length_b                   12.752115
_cell_length_c                   13.167416
_cell_angle_alpha                91.8452
_cell_angle_beta                 104.7652
_cell_angle_gamma                104.1452
loop_
_atom_site_label
_atom_site_type_symbol
_atom_site_fract_x
_atom_site_fract_y
_atom_site_fract_z
     1  S          0.33003300       0.29562616       0.81549115
     2  S          0.84250300       0.97785617       0.94672816
     3  C          0.45540120       0.43445700       0.85991700
     4  C          0.72027120       0.84045800       0.90412700
     5  C          0.53181120       0.62555800       0.82718600
     6  C          0.64022130       0.65218700       0.93462700
     7  C          0.43881130       0.51072800       0.79183700
     8  H          0.36570000       0.48930000       0.72010000
     9  C          0.73510130       0.76102800       0.97220800
    10  H          0.80920000       0.78010000       0.04410000
    11  C          0.56259140       0.45969700       0.96645700
    12  H          0.57160000       0.40390000       0.01220000
    13  C          0.65539150       0.56776800       0.00387800
    14  H          0.72960000       0.58620000       0.07580000
    15  C          0.52030150       0.70608900       0.76020700
    16  H          0.44820000       0.68730000       0.68800000
    17  C          0.60969150       0.81037900       0.79597800
    18  H          0.59960000       0.86500000       0.74900000
    19  O          0.27696900       0.28554500       0.69959500
    20  O          0.89775100      -0.01148400       0.06118500
    21  O          0.15278900       0.27135600       0.85502500
    22  O          0.02024900       0.00138600       0.90660500
    23  O          0.47204100       0.23411500       0.86159500
    24  O          0.70198100       0.04046500       0.90126500
    25  S          0.66638700       0.32553617       0.30734416
    26  S          0.50731300       0.94785318       0.45501516
    27  C          0.81483870       0.46201800       0.33035700
    28  C          0.35913130       0.81121800       0.42965700
    29  C          0.01176120       0.48557700       0.38271700
    30  H          0.07030000       0.42870000       0.40760000
    31  C          0.04161120       0.67819700       0.36211700
    32  C          0.72281860       0.54270800       0.29281800
    33  H          0.58350000       0.52440000       0.25790000
    34  C          0.13217130       0.59495800       0.40093700
    35  C          0.15896140       0.78680800       0.37658700
    36  H          0.09980000       0.84290000       0.34970000
    37  C          0.34343130       0.62507800       0.45285800
    38  H          0.40790000       0.56980000       0.47600000
    39  C          0.44989140       0.72702800       0.46915800
    40  H          0.58760000       0.74480000       0.50730000
    41  C          0.83715860       0.65200800       0.30669800
    42  H          0.77660000       0.70730000       0.27890000
    43  O          0.80073100       0.26024500       0.35567500
    44  O          0.59578100       0.30304600       0.19250500
    45  O          0.57923100       0.96984600       0.56925500
    46  O          0.37486900       0.01408500       0.40833500
    47  O          0.50452100       0.32014600       0.35594500
    48  O          0.67135900       0.95241600       0.40600500
    49  C          0.13710140       0.01955700       0.64329700
    50  N          0.08864120       0.01199800       0.53705600
    51  H          0.96550000       0.00970000       0.50080000
    52  H          0.18010000       0.00930000       0.50390000
    53  N         -0.00396110       0.02331700       0.68994600
    54  H          0.02420000       0.02940000       0.75930000
    55  H          0.87360000       0.01970000       0.65180000
    56  N          0.32475110       0.02448700       0.69514600
    57  H          0.36070000       0.03060000       0.76460000
    58  H          0.41340000       0.02160000       0.66010000
    59  C          0.03819120       0.25293700       0.12298700
    60  N          0.08369120       0.26086800       0.22561600
    61  H          0.20760000       0.26570000       0.26240000
    62  H         -0.00940000       0.26140000       0.25820000
    63  N          0.17609120       0.25196700       0.07172600
    64  H          0.30070000       0.25670000       0.10730000
    65  H          0.14270000       0.24650000       0.00230000
    66  N          0.85262880       0.24826700       0.06575700
    67  H          0.75870000       0.25050000       0.09730000
    68  H          0.82400000       0.24290000      -0.00360000
    69  C          0.46133140       0.03621700       0.13882600
    70  N          0.42233120       0.04267700       0.03265600
    71  H          0.30240000       0.04570000      -0.00400000
    72  H          0.51700000       0.04380000       0.00080000
    73  N          0.32018120       0.03471700       0.18348600
    74  H          0.34240000       0.03010000       0.25180000
    75  H          0.20150000       0.03830000       0.14560000
    76  N          0.64461110       0.03110700       0.19024600
    77  H          0.67490000       0.02640000       0.25870000
    78  H          0.73560000       0.03240000       0.15580000
    79  C          0.71020120       0.23758800       0.62865800
    80  N          0.85650110       0.23994700       0.57766600
    81  H         -0.02350000       0.23620000       0.61340000
    82  H          0.83020000       0.24520000       0.50930000
    83  N          0.53189120       0.24120700       0.56890600
    84  H          0.43220000       0.23830000       0.59740000
    85  H          0.51350000       0.24650000       0.50080000
    86  N          0.74656120       0.22998700       0.72770600
    87  H          0.65120000       0.22690000       0.75950000
    88  H          0.86710000       0.22780000       0.76430000
    89  C          0.20072000       0.55429100       0.10113100
    90  H          0.19030000       0.48990000       0.13600000
    91  C          0.88193840       0.62285900       0.60136900
    92  H          0.83920000       0.61870000       0.52650000
    93  C          0.12876120       0.63813800       0.93808800
    94  C          0.28992000       0.74233100       0.10706100
    95  H          0.33930000       0.81090000       0.14800000
    96  C          0.93888000       0.53766100       0.76015100
    97  H          0.93020000       0.47180000       0.79260000
    98  C          0.04099140       0.63262800       0.82209900
    99  C          0.12303180       0.54693900       0.98810100
   100  H          0.06750000       0.47770000       0.94850000
   101  C          0.06002000       0.72552110       0.76653120
   102  H          0.13230000       0.79400000       0.80490000
   103  C         -0.01842000       0.72202110       0.66306130
   104  H         -0.00670000       0.78780000       0.63040000
   105  C          0.22292000       0.73815110      -0.00173890
   106  H          0.24100000       0.80320000       0.96460000
   107  C          0.28623170       0.64974110       0.15664100
   108  H          0.34480000       0.65400000       0.23050000
   109  C          0.84878000       0.53132120       0.65484120
   110  H          0.76360000       0.46430000       0.61820000
