data_APONUP
_symmetry_space_group_name_H-M    'P1'
_symmetry_Int_Tables_number       1
loop_
_symmetry_equiv_pos_site_id
_symmetry_equiv_pos_as_xyz
1 x,y,z
_cell_length_a                   6.16274
_cell_length_b                   7.21255
_cell_length_c                   16.053511
_cell_angle_alpha                95.2631
_cell_angle_beta                 94.7581
_cell_angle_gamma                94.6111
loop_
_atom_site_label
_atom_site_type_symbol
_atom_site_fract_x
_atom_site_fract_y
_atom_site_fract_z
     1  S          0.19308500       0.25254400       0.13047018
     2  S          0.80691500       0.74745600       0.86952982
     3  C          0.16152000       0.32873170       0.23677800
     4  C          0.83848000       0.67126830       0.76322200
     5  C          0.95988000       0.28922000       0.26790900
     6  C          0.04012000       0.71078000       0.73209100
     7  H          0.84240000       0.22270000       0.23250000
     8  H          0.15760000       0.77730000       0.76750000
     9  C          0.10502000       0.44566190       0.40150800
    10  C          0.89498000       0.55433810       0.59849200
    11  C          0.33432000       0.42572000       0.28742900
    12  C          0.66568000       0.57428000       0.71257100
    13  H          0.47110000       0.45170000       0.26570000
    14  H          0.52890000       0.54830000       0.73430000
    15  C          0.30552000       0.48492000       0.37045900
    16  C          0.69448000       0.51508000       0.62954100
    17  H          0.42270000       0.55200000       0.40580000
    18  H          0.57730000       0.44800000       0.59420000
    19  C          0.93188000       0.34712000       0.35041900
    20  C          0.06812000       0.65288000       0.64958100
    21  H          0.79550000       0.31990000       0.37220000
    22  H          0.20450000       0.68010000       0.62780000
    23  O          0.42739150       0.27344130       0.12130600
    24  O          0.57260850       0.72655870       0.87869400
    25  O          0.10463150       0.05704130       0.11771600
    26  O          0.89536850       0.94295870       0.88228400
    27  O          0.07030160       0.37191140       0.07935600
    28  O          0.92969840       0.62808860       0.92064400
    29  N          0.09252000       0.51477170       0.48741700
    30  N          0.90748000       0.48522830       0.51258300
    31  C          0.55742000       0.76091180       0.08242800
    32  C          0.44258000       0.23908820       0.91757200
    33  N          0.65161190       0.93136160       0.07961700
    34  N          0.34838810       0.06863840       0.92038300
    35  H          0.57200000       0.02730000       0.08000000
    36  H          0.42800000       0.97270000       0.92000000
    37  H          0.79390000       0.94880000       0.07740000
    38  H          0.20610000       0.05120000       0.92260000
    39  N          0.34374190       0.73559170       0.08576800
    40  N          0.65625810       0.26440830       0.91423200
    41  H          0.26460000       0.83190000       0.08610000
    42  H          0.73540000       0.16810000       0.91390000
    43  H          0.28050000       0.62240000       0.08760000
    44  H          0.71950000       0.37760000       0.91240000
    45  N          0.67555190       0.61424160       0.08281800
    46  N          0.32444810       0.38575840       0.91718200
    47  H          0.61120000       0.50170000       0.08530000
    48  H          0.38880000       0.49830000       0.91470000
    49  H          0.81800000       0.62990000       0.08060000
    50  H          0.18200000       0.37010000       0.91940000
    51  C          0.45962000       0.02787190       0.54137900
    52  C          0.54038000       0.97212810       0.45862100
    53  C          0.30893000       0.13902000       0.69775100
    54  C          0.69107000       0.86098000       0.30224900
    55  H          0.25880000       0.17780000       0.75040000
    56  H          0.74120000       0.82220000       0.24960000
    57  C          0.18603000       0.15992000       0.62374110
    58  C          0.81397000       0.84008000       0.37625890
    59  H          0.04950000       0.21190000       0.62560000
    60  H          0.95050000       0.78810000       0.37440000
    61  C          0.26063000       0.10562000       0.54687100
    62  C          0.73937000       0.89438000       0.45312900
    63  H          0.17400000       0.12180000       0.49670000
    64  H          0.82600000       0.87820000       0.50330000
    65  C          0.57963000       0.00552000       0.61725100
    66  C          0.42037000      -0.00552000       0.38274900
    67  H          0.71490000       0.95120000       0.61600000
    68  H          0.28510000       0.04880000       0.38400000
    69  C          0.50563000       0.06062000       0.69394100
    70  C          0.49437000       0.93938000       0.30605900
    71  H          0.59080000       0.04450000       0.74440000
    72  H          0.40920000       0.95550000       0.25560000
