data_APOQAY
_symmetry_space_group_name_H-M    'P1'
_symmetry_Int_Tables_number       1
loop_
_symmetry_equiv_pos_site_id
_symmetry_equiv_pos_as_xyz
1 x,y,z
_cell_length_a                   7.64054
_cell_length_b                   30.415618
_cell_length_c                   11.40616
_cell_angle_alpha                90.0
_cell_angle_beta                 90.7261
_cell_angle_gamma                90.0
loop_
_atom_site_label
_atom_site_type_symbol
_atom_site_fract_x
_atom_site_fract_y
_atom_site_fract_z
     1  S          0.07895500       0.20722514       0.42211400
     2  S          0.42104500       0.70722514       0.07788600
     3  S          0.92104500       0.79277486       0.57788600
     4  S          0.57895500       0.29277486       0.92211400
     5  C          0.04882000       0.15063500       0.44681140
     6  C          0.45118000       0.65063500       0.05318860
     7  C          0.95118000       0.84936500       0.55318860
     8  C          0.54882000       0.34936500       0.94681140
     9  C          0.97248000       0.06300600       0.49385180
    10  C          0.52752000       0.56300600       0.00614820
    11  C          0.02752000       0.93699400       0.50614820
    12  C          0.47248000       0.43699400      -0.00614820
    13  C          0.95128000       0.12619600       0.36679160
    14  C          0.54872000       0.62619600       0.13320840
    15  C          0.04872000       0.87380400       0.63320840
    16  C          0.45128000       0.37380400       0.86679160
    17  H          0.91020000       0.13930000       0.29600000
    18  H          0.58980000       0.63930000       0.20400000
    19  H          0.08980000       0.86070000       0.70400000
    20  H          0.41020000       0.36070000       0.79600000
    21  C          0.11172000       0.13143600       0.54916160
    22  C          0.38828000       0.63143600       0.95083840
    23  C          0.88828000       0.86856400       0.45083840
    24  C          0.61172000       0.36856400       0.04916160
    25  H          0.18050000       0.14810000       0.60310000
    26  H          0.31950000       0.64810000       0.89690000
    27  H          0.81950000       0.85190000       0.39690000
    28  H          0.68050000       0.35190000       0.10310000
    29  C          0.92927000       0.01555600       0.52072000
    30  C          0.57073000       0.51555600       0.97928000
    31  C          0.07073000       0.98444400       0.47928000
    32  C          0.42927000       0.48444400       0.02072000
    33  H          0.81690000       0.00770000       0.48190000
    34  H          0.68310000       0.50770000       0.01810000
    35  H          0.18310000       0.99230000       0.51810000
    36  H          0.31690000       0.49230000       0.98190000
    37  H          0.91480000       0.01210000       0.60630000
    38  H          0.58520000       0.51210000       0.89370000
    39  H          0.08520000       0.98790000       0.39370000
    40  H          0.41480000       0.48790000       0.10630000
    41  C          0.07343000       0.08789600       0.57197170
    42  C          0.42657000       0.58789600       0.92802830
    43  C          0.92657000       0.91210400       0.42802830
    44  C          0.57343000       0.41210400       0.07197170
    45  H          0.11650000       0.07470000       0.64210000
    46  H          0.38350000       0.57470000       0.85790000
    47  H          0.88350000       0.92530000       0.35790000
    48  H          0.61650000       0.42530000       0.14210000
    49  C          0.91428000       0.08261600       0.39076180
    50  C          0.58572000       0.58261600       0.10923820
    51  C          0.08572000       0.91738400       0.60923820
    52  C          0.41428000       0.41738400       0.89076180
    53  H          0.84800000       0.06590000       0.33570000
    54  H          0.65200000       0.56590000       0.16430000
    55  H          0.15200000       0.93410000       0.66430000
    56  H          0.34800000       0.43410000       0.83570000
    57  O          0.08314160       0.21390400       0.29591110
    58  O          0.41685840       0.71390400       0.20408890
    59  O          0.91685840       0.78609600       0.70408890
    60  O          0.58314160       0.28609600       0.79591110
    61  O          0.24213150       0.21968400       0.48114110
    62  O          0.25786850       0.71968400       0.01885890
    63  O          0.75786850       0.78031600       0.51885890
    64  O          0.74213150       0.28031600       0.98114110
    65  O          0.92818850       0.22920400       0.47417110
    66  O          0.57181150       0.72920400       0.02582890
    67  O          0.07181150       0.77079600       0.52582890
    68  O          0.42818850       0.27079600       0.97417110
    69  C          0.57912000       0.23542600       0.26691160
    70  C          0.92088000       0.73542600       0.23308840
    71  C          0.42088000       0.76457400       0.73308840
    72  C          0.07912000       0.26457400       0.76691160
    73  N          0.58192000       0.22250500       0.37773140
    74  N          0.91808000       0.72250500       0.12226860
    75  N          0.41808000       0.77749500       0.62226860
    76  N          0.08192000       0.27749500       0.87773140
    77  H          0.48310000       0.21840000       0.41500000
    78  H          0.01690000       0.71840000       0.08500000
    79  H          0.51690000       0.78160000       0.58500000
    80  H         -0.01690000       0.28160000       0.91500000
    81  H          0.68260000       0.21810000       0.41420000
    82  H          0.81740000       0.71810000       0.08580000
    83  H          0.31740000       0.78190000       0.58580000
    84  H          0.18260000       0.28190000       0.91420000
    85  N          0.72762000       0.24084500       0.21017140
    86  N          0.77238000       0.74084500       0.28982860
    87  N          0.27238000       0.75915500       0.78982860
    88  N          0.22762000       0.25915500       0.71017140
    89  H          0.72560000       0.24890000       0.13610000
    90  H          0.77440000       0.74890000       0.36390000
    91  H          0.27440000       0.75110000       0.86390000
    92  H          0.22560000       0.25110000       0.63610000
    93  H          0.82830000       0.23640000       0.24650000
    94  H          0.67170000       0.73640000       0.25350000
    95  H          0.17170000       0.76360000       0.75350000
    96  H          0.32830000       0.26360000       0.74650000
    97  N          0.42812000       0.24209600       0.21213150
    98  N          0.07188000       0.74209600       0.28786850
    99  N          0.57188000       0.75790400       0.78786850
   100  N          0.92812000       0.25790400       0.71213150
   101  H          0.42630000       0.25010000       0.13800000
   102  H          0.07370000       0.75010000       0.36200000
   103  H          0.57370000       0.74990000       0.86200000
   104  H          0.92630000       0.24990000       0.63800000
   105  H          0.32930000       0.23850000       0.24980000
   106  H          0.17070000       0.73850000       0.25020000
   107  H          0.67070000       0.76150000       0.75020000
   108  H          0.82930000       0.26150000       0.74980000
   109  C          0.58073000       0.09880700       0.63979170
   110  C          0.91927000       0.59880700       0.86020830
   111  C          0.41927000       0.90119300       0.36020830
   112  C          0.08073000       0.40119300       0.13979170
   113  H          0.61950000       0.07700000       0.58630000
   114  H          0.88050000       0.57700000       0.91370000
   115  H          0.38050000       0.92300000       0.41370000
   116  H          0.11950000       0.42300000       0.08630000
   117  C          0.49422000       0.08649600       0.74090160
   118  C          0.00578000       0.58649600       0.75909840
   119  C          0.50578000       0.91350400       0.25909840
   120  C         -0.00578000       0.41350400       0.24090160
   121  C          0.54263000       0.89391300       0.70262000
   122  C          0.95737000       0.39391300       0.79738000
   123  C          0.45737000       0.10608700       0.29738000
   124  C          0.04263000       0.60608700       0.20262000
   125  H          0.58400000       0.87200000       0.65050000
   126  H          0.91600000       0.37200000       0.84950000
   127  H          0.41600000       0.12800000       0.34950000
   128  H          0.08400000       0.62800000       0.15050000
   129  C          0.56263000       0.93768300       0.67549190
   130  C          0.93737000       0.43768300       0.82450810
   131  C          0.43737000       0.06231700       0.32450810
   132  C          0.06263000       0.56231700       0.17549190
   133  H          0.61910000       0.94600000       0.60510000
   134  H          0.88090000       0.44600000       0.89490000
   135  H          0.38090000       0.05400000       0.39490000
   136  H          0.11910000       0.55400000       0.10510000
   137  C          0.50032000       0.96973400       0.75094170
   138  C         -0.00032000       0.46973400       0.74905830
   139  C          0.49968000       0.03026600       0.24905830
   140  C          0.00032000       0.53026600       0.25094170
   141  C          0.55333000       0.17437700       0.69472000
   142  C          0.94667000       0.67437700       0.80528000
   143  C          0.44667000       0.82562300       0.30528000
   144  C          0.05333000       0.32562300       0.19472000
   145  H          0.57520000       0.20450000       0.67920000
   146  H          0.92480000       0.70450000       0.82080000
   147  H          0.42480000       0.79550000       0.32080000
   148  H          0.07520000       0.29550000       0.17920000
   149  C          0.40123000       0.91356300       0.88132000
   150  C          0.09877000       0.41356300       0.61868000
   151  C          0.59877000       0.08643700       0.11868000
   152  C          0.90123000       0.58643700       0.38132000
   153  H          0.34590000       0.90500000       0.95190000
   154  H          0.15410000       0.40500000       0.54810000
   155  H          0.65410000       0.09500000       0.04810000
   156  H          0.84590000       0.59500000       0.45190000
   157  C          0.46493000       0.16226700       0.79442000
   158  C          0.03507000       0.66226700       0.70558000
   159  C          0.53507000       0.83773300       0.20558000
   160  C          0.96493000       0.33773300       0.29442000
   161  H          0.42480000       0.18420000       0.84700000
   162  H          0.07520000       0.68420000       0.65300000
   163  H          0.57520000       0.81580000       0.15300000
   164  H          0.92480000       0.31580000       0.34700000
   165  C          0.42013000       0.95763300       0.85488180
   166  C          0.07987000       0.45763300       0.64511820
   167  C          0.57987000       0.04236700       0.14511820
   168  C          0.92013000       0.54236700       0.35488180
   169  H          0.37870000       0.97950000       0.90720000
   170  H          0.12130000       0.47950000       0.59280000
   171  H          0.62130000       0.02050000       0.09280000
   172  H          0.87870000       0.52050000       0.40720000
   173  C          0.43443000       0.11832700       0.81782180
   174  C          0.06557000       0.61832700       0.68217820
   175  C          0.56557000       0.88167300       0.18217820
   176  C          0.93443000       0.38167300       0.31782180
   177  H          0.37290000       0.11000000       0.88620000
   178  H          0.12710000       0.61000000       0.61380000
   179  H          0.62710000       0.89000000       0.11380000
   180  H          0.87290000       0.39000000       0.38620000
   181  C          0.61013000       0.14253700       0.61728190
   182  C          0.88987000       0.64253700       0.88271810
   183  C          0.38987000       0.85746300       0.38271810
   184  C          0.11013000       0.35746300       0.11728190
   185  H          0.66980000       0.15100000       0.54820000
   186  H          0.83020000       0.65100000       0.95180000
   187  H          0.33020000       0.84900000       0.45180000
   188  H          0.16980000       0.34900000       0.04820000
   189  C          0.46303000       0.88180300       0.80482000
   190  C          0.03697000       0.38180300       0.69518000
   191  C          0.53697000       0.11819700       0.19518000
   192  C          0.96303000       0.61819700       0.30482000
   193  H          0.45010000       0.85150000       0.82330000
   194  H          0.04990000       0.35150000       0.67670000
   195  H          0.54990000       0.14850000       0.17670000
   196  H          0.95010000       0.64850000       0.32330000
   197  N          0.46092000       0.04183600       0.77656150
   198  N          0.03908000       0.54183600       0.72343850
   199  N          0.53908000       0.95816400       0.22343850
   200  N          0.96092000       0.45816400       0.27656150
   201  N          0.52962000       0.01425600       0.71341140
   202  N          0.97038000       0.51425600       0.78658860
   203  N          0.47038000       0.98574400       0.28658860
   204  N          0.02962000       0.48574400       0.21341140
   205  C          0.01903000       0.05822800      -0.00838000
   206  C          0.48097000       0.55822800       0.50838000
   207  C          0.98097000       0.94177200       0.00838000
   208  C          0.51903000       0.44177200       0.49162000
   209  C          0.93937000       0.07431900       0.89092000
   210  C          0.56063000       0.57431900       0.60908000
   211  C          0.06063000       0.92568100       0.10908000
   212  C          0.43937000       0.42568100       0.39092000
   213  H          0.89050000       0.05480000       0.83440000
   214  H          0.60950000       0.55480000       0.66560000
   215  H          0.10950000       0.94520000       0.16560000
   216  H          0.39050000       0.44520000       0.33440000
   217  C          0.09373000       0.08667900       0.07242000
   218  C          0.40627000       0.58667900       0.42758000
   219  C          0.90627000       0.91332100       0.92758000
   220  C          0.59373000       0.41332100       0.57242000
   221  H          0.15140000       0.07530000       0.14010000
   222  H          0.34860000       0.57530000       0.35990000
   223  H          0.84860000       0.92470000       0.85990000
   224  H          0.65140000       0.42470000       0.64010000
   225  C          0.93217000       0.11886900       0.87382000
   226  C          0.56783000       0.61886900       0.62618000
   227  C          0.06783000       0.88113100       0.12618000
   228  C          0.43217000       0.38113100       0.37382000
   229  H          0.87770000       0.13030000       0.80500000
   230  H          0.62230000       0.63030000       0.69500000
   231  H          0.12230000       0.86970000       0.19500000
   232  H          0.37770000       0.36970000       0.30500000
   233  C          0.08473000       0.13068900       0.05532000
   234  C          0.41527000       0.63068900       0.44468000
   235  C          0.91527000       0.86931100       0.94468000
   236  C          0.58473000       0.36931100       0.55532000
   237  H          0.13430000       0.15010000       0.11190000
   238  H          0.36570000       0.65010000       0.38810000
   239  H          0.86570000       0.84990000       0.88810000
   240  H          0.63430000       0.34990000       0.61190000
   241  C          0.00413000       0.14744800       0.95652000
   242  C          0.49587000       0.64744800       0.54348000
   243  C         -0.00413000       0.85255200       0.04348000
   244  C          0.50413000       0.35255200       0.45652000
   245  H         -0.00250000       0.17830000       0.94480000
   246  H          0.50250000       0.67830000       0.55520000
   247  H          0.00250000       0.82170000       0.05520000
   248  H          0.49750000       0.32170000       0.44480000
   249  N          0.03803000       0.00935100       0.03407180
   250  N          0.46197000       0.50935100       0.46592820
   251  N          0.96197000       0.99064900       0.96592820
   252  N          0.53803000       0.49064900       0.53407180
