data_APOQIG
_symmetry_space_group_name_H-M    'P1'
_symmetry_Int_Tables_number       1
loop_
_symmetry_equiv_pos_site_id
_symmetry_equiv_pos_as_xyz
1 x,y,z
_cell_length_a                   6.10144
_cell_length_b                   7.31155
_cell_length_c                   17.904713
_cell_angle_alpha                91.1681
_cell_angle_beta                 97.0621
_cell_angle_gamma                95.9111
loop_
_atom_site_label
_atom_site_type_symbol
_atom_site_fract_x
_atom_site_fract_y
_atom_site_fract_z
     1  S          0.78853500       0.77186400       0.38518716
     2  S          0.21146500       0.22813600       0.61481284
     3  C          0.80672000       0.71118160       0.29034700
     4  C          0.19328000       0.28881840       0.70965300
     5  C          0.83912000       0.62513170       0.14078700
     6  C          0.16088000       0.37486830       0.85921300
     7  C          0.65342000       0.70250190       0.15997700
     8  C          0.34658000       0.29749810       0.84002300
     9  H          0.53800000       0.72550000       0.12180000
    10  H          0.46200000       0.27450000       0.87820000
    11  C         -0.00838000       0.63411190       0.27114700
    12  C          0.00838000       0.36588810       0.72885300
    13  H          0.10680000       0.61090000       0.30940000
    14  H          0.89320000       0.38910000       0.69060000
    15  C          0.00932000       0.59065190       0.19618700
    16  C         -0.00932000       0.40934810       0.80381300
    17  H          0.13590000       0.53810000       0.18300000
    18  H          0.86410000       0.46190000       0.81700000
    19  C          0.63662000       0.74589180       0.23442700
    20  C          0.36338000       0.25410820       0.76557300
    21  H          0.51020000       0.79890000       0.24750000
    22  H          0.48980000       0.20110000       0.75250000
    23  C          0.02572000       0.51242000       0.04227700
    24  C         -0.02572000       0.48758000       0.95772300
    25  H          0.04510000       0.39290000       0.06580000
    26  H          0.95490000       0.60710000       0.93420000
    27  H          0.16300000       0.59690000       0.05610000
    28  H          0.83700000       0.40310000       0.94390000
    29  O          0.55228150       0.74538130       0.39402500
    30  O          0.44771850       0.25461870       0.60597500
    31  O          0.91951160       0.64997130       0.43104500
    32  O          0.08048840       0.35002870       0.56895500
    33  O          0.87691160       0.96519130       0.39639600
    34  O          0.12308840       0.03480870       0.60360400
    35  O          0.83829170       0.58880150       0.06568500
    36  O          0.16170830       0.41119850       0.93431500
    37  C          0.56472000       0.75003170       0.57747700
    38  C          0.43528000       0.24996830       0.42252300
    39  N          0.65727190       0.92079150       0.57390700
    40  N          0.34272810       0.07920850       0.42609300
    41  H          0.57790000       0.01360000       0.57790000
    42  H          0.42210000      -0.01360000       0.42210000
    43  H          0.79830000       0.94160000       0.56750000
    44  H          0.20170000       0.05840000       0.43250000
    45  N          0.35216190       0.71916160       0.58705800
    46  N          0.64783810       0.28083840       0.41294200
    47  H          0.27310000       0.81220000       0.59100000
    48  H          0.72690000       0.18780000       0.40900000
    49  H          0.29020000       0.60570000       0.58940000
    50  H          0.70980000       0.39430000       0.41060000
    51  N          0.68525190       0.60822160       0.57375700
    52  N          0.31474810       0.39177840       0.42624300
    53  H          0.82740000       0.62810000       0.56890000
    54  H          0.17260000       0.37190000       0.43110000
    55  H          0.62240000       0.49500000       0.57620000
    56  H          0.37760000       0.50500000       0.42380000
    57  C          0.49903000       0.23572000       0.19656900
    58  C          0.50097000       0.76428000       0.80343100
    59  H          0.61010000       0.31160000       0.22810000
    60  H          0.38990000       0.68840000       0.77190000
    61  C          0.37722000       0.06579190       0.08030800
    62  C          0.62278000       0.93420810       0.91969200
    63  C          0.17183000       0.01762000       0.10427900
    64  C          0.82817000      -0.01762000       0.89572100
    65  H          0.05880000       0.94500000       0.07220000
    66  H          0.94120000       0.05500000       0.92780000
    67  C          0.29493000       0.18442000       0.22111900
    68  C          0.70507000       0.81558000       0.77888100
    69  H          0.26730000       0.22410000       0.26960000
    70  H          0.73270000       0.77590000       0.73040000
    71  C          0.13163000       0.07562000       0.17497900
    72  C          0.86837000       0.92438000       0.82502100
    73  H         -0.00790000       0.04060000       0.19180000
    74  H          0.00790000       0.95940000       0.80820000
    75  C          0.54133000       0.17682000       0.12640900
    76  C          0.45867000       0.82318000       0.87359100
    77  H          0.68110000       0.21170000       0.10970000
    78  H          0.31890000       0.78830000       0.89030000
    79  N          0.40322000      -0.01099170       0.00784700
    80  N          0.59678000       0.01099170      -0.00784700
