data_APOQEC
_symmetry_space_group_name_H-M    'P1'
_symmetry_Int_Tables_number       1
loop_
_symmetry_equiv_pos_site_id
_symmetry_equiv_pos_as_xyz
1 x,y,z
_cell_length_a                   7.61425
_cell_length_b                   29.5022
_cell_length_c                   11.63088
_cell_angle_alpha                90.0
_cell_angle_beta                 90.1
_cell_angle_gamma                90.0
loop_
_atom_site_label
_atom_site_type_symbol
_atom_site_fract_x
_atom_site_fract_y
_atom_site_fract_z
     1  C          0.47284000       0.76109800       0.30512000
     2  C          0.02716000       0.26109800       0.19488000
     3  C          0.52716000       0.23890200       0.69488000
     4  C          0.97284000       0.73890200       0.80512000
     5  N          0.62063000       0.75717800       0.36222000
     6  N          0.87937000       0.25717800       0.13778000
     7  N          0.37937000       0.24282200       0.63778000
     8  N          0.12063000       0.74282200       0.86222000
     9  H          0.72140000       0.76170000       0.32710000
    10  H          0.77860000       0.26170000       0.17290000
    11  H          0.27860000       0.23830000       0.67290000
    12  H          0.22140000       0.73830000       0.82710000
    13  H          0.61910000       0.75000000       0.43560000
    14  H          0.88090000       0.25000000       0.06440000
    15  H          0.38090000       0.25000000       0.56440000
    16  H          0.11910000       0.75000000       0.93560000
    17  N          0.32083000       0.75455900       0.35822000
    18  N          0.17917000       0.25455900       0.14178000
    19  N          0.67917000       0.24544100       0.64178000
    20  N          0.82083000       0.74544100       0.85822000
    21  H          0.31930000       0.74760000       0.43180000
    22  H          0.18070000       0.24760000       0.06820000
    23  H          0.68070000       0.25240000       0.56820000
    24  H          0.81930000       0.75240000       0.93180000
    25  H          0.22160000       0.75720000       0.31990000
    26  H          0.27840000       0.25720000       0.18010000
    27  H          0.77840000       0.24280000       0.68010000
    28  H          0.72160000       0.74280000       0.81990000
    29  N          0.47273000       0.77185700       0.19512160
    30  N          0.02727000       0.27185700       0.30487840
    31  N          0.52727000       0.22814300       0.80487840
    32  N          0.97273000       0.72814300       0.69512160
    33  H          0.57260000       0.77650000       0.15910000
    34  H          0.92740000       0.27650000       0.34090000
    35  H          0.42740000       0.22350000       0.84090000
    36  H          0.07260000       0.72350000       0.65910000
    37  H          0.37260000       0.77440000       0.15770000
    38  H          0.12740000       0.27440000       0.34230000
    39  H          0.62740000       0.22560000       0.84230000
    40  H          0.87260000       0.72560000       0.65770000
    41  C          0.97546000       0.84856900       0.12164190
    42  C          0.52454000       0.34856900       0.37835810
    43  C          0.02454000       0.15143100       0.87835810
    44  C          0.47546000       0.65143100       0.62164190
    45  C          0.90647000       0.87944120       0.20032000
    46  C          0.59353000       0.37944120       0.29968000
    47  C          0.09353000       0.12055880       0.79968000
    48  C          0.40647000       0.62055880       0.70032000
    49  H          0.86010000       0.86920000       0.27150000
    50  H          0.63990000       0.36920000       0.22850000
    51  H          0.13990000       0.13080000       0.72850000
    52  H          0.36010000       0.63080000       0.77150000
    53  C          0.90616000       0.92492110       0.17372000
    54  C          0.59384000       0.42492110       0.32628000
    55  C          0.09384000       0.07507890       0.82628000
    56  C          0.40616000       0.57507890       0.67372000
    57  H          0.85940000       0.94590000       0.22770000
    58  H          0.64060000       0.44590000       0.27230000
    59  H          0.14060000       0.05410000       0.77230000
    60  H          0.35940000       0.55410000       0.72770000
    61  C          0.97256000       0.94111100       0.06992000
    62  C          0.52744000       0.44111100       0.43008000
    63  C          0.02744000       0.05888900       0.93008000
    64  C          0.47256000       0.55888900       0.56992000
    65  C          0.04094000       0.90934100      -0.00692000
    66  C          0.45906000       0.40934100       0.50692000
    67  C          0.95906000       0.09065900       0.00692000
    68  C          0.54094000       0.59065900       0.49308000
    69  H          0.08730000       0.91940000       0.92180000
    70  H          0.41270000       0.41940000       0.57820000
    71  H          0.91270000       0.08060000       0.07820000
    72  H          0.58730000       0.58060000       0.42180000
    73  C          0.04274000       0.86402110       0.01812000
    74  C          0.45726000       0.36402110       0.48188000
    75  C          0.95726000       0.13597890       0.98188000
    76  C          0.54274000       0.63597890       0.51812000
    77  H          0.09010000       0.84310000       0.96440000
    78  H          0.40990000       0.34310000       0.53560000
    79  H          0.90990000       0.15690000       0.03560000
    80  H          0.59010000       0.65690000       0.46440000
    81  C          0.96796000       0.98949100       0.04582000
    82  C          0.53204000       0.48949100       0.45418000
    83  C          0.03204000       0.01050900       0.95418000
    84  C          0.46796000       0.51050900       0.54582000
    85  H          0.91300000       0.00810000       0.10190000
    86  H          0.58700000       0.50810000       0.39810000
    87  H          0.08700000       0.99190000       0.89810000
    88  H          0.41300000       0.49190000       0.60190000
    89  O          0.12922000       0.77084700       0.09833180
    90  O          0.37078000       0.27084700       0.40166820
    91  O          0.87078000       0.22915300       0.90166820
    92  O          0.62922000       0.72915300       0.59833180
    93  O          0.96658000       0.78423600       0.27421140
    94  O          0.53342000       0.28423600       0.22578860
    95  O          0.03342000       0.21576400       0.72578860
    96  O          0.46658000       0.71576400       0.77421140
    97  O          0.81248000       0.77239700       0.09474170
    98  O          0.68752000       0.27239700       0.40525830
    99  O          0.18752000       0.22760300       0.90525830
   100  O          0.31248000       0.72760300       0.59474170
   101  S          0.97082900       0.79009200       0.15025600
   102  S          0.52917100       0.29009200       0.34974400
   103  S          0.02917100       0.20990800       0.84974400
   104  S          0.47082900       0.70990800       0.65025600
   105  C          0.47385000       0.87925890       0.38263000
   106  C          0.02615000       0.37925890       0.11737000
   107  C          0.52615000       0.12074110       0.61737000
   108  C          0.97385000       0.62074110       0.88263000
   109  H          0.46990000       0.84950000       0.41370000
   110  H          0.03010000       0.34950000       0.08630000
   111  H          0.53010000       0.15050000       0.58630000
   112  H          0.96990000       0.65050000       0.91370000
   113  C          0.55924000       0.91288880       0.44113000
   114  C          0.94076000       0.41288880       0.05887000
   115  C          0.44076000       0.08711120       0.55887000
   116  C          0.05924000       0.58711120       0.94113000
   117  H          0.61270000       0.90660000       0.51320000
   118  H          0.88730000       0.40660000       0.98680000
   119  H          0.38730000       0.09340000       0.48680000
   120  H          0.11270000       0.59340000       0.01320000
   121  C          0.56754000       0.95549880       0.39563000
   122  C          0.93246000       0.45549880       0.10437000
   123  C          0.43246000       0.04450120       0.60437000
   124  C          0.06754000       0.54450120       0.89563000
   125  H          0.62740000       0.97900000       0.43540000
   126  H          0.87260000       0.47900000       0.06460000
   127  H          0.37260000       0.02100000       0.56460000
   128  H          0.12740000       0.52100000       0.93540000
   129  C          0.48834000       0.96398880       0.29183000
   130  C          0.01166000       0.46398880       0.20817000
   131  C          0.51166000       0.03601120       0.70817000
   132  C         -0.01166000       0.53601120       0.79183000
   133  C          0.40165000       0.93037820       0.23363000
   134  C          0.09835000       0.43037820       0.26637000
   135  C          0.59835000       0.06962180       0.76637000
   136  C          0.90165000       0.56962180       0.73363000
   137  H          0.34730000       0.93640000       0.16170000
   138  H          0.15270000       0.43640000       0.33830000
   139  H          0.65270000       0.06360000       0.83830000
   140  H          0.84730000       0.56360000       0.66170000
   141  C          0.39475000       0.88804840       0.28084000
   142  C          0.10525000       0.38804840       0.21916000
   143  C          0.60525000       0.11195160       0.71916000
   144  C          0.89475000       0.61195160       0.78084000
   145  H          0.33370000       0.86450000       0.24180000
   146  H          0.16630000       0.36450000       0.25820000
   147  H          0.66630000       0.13550000       0.75820000
   148  H          0.83370000       0.63550000       0.74180000
   149  C          0.52415000       0.16403130       0.10873000
   150  C          0.97585000       0.66403130       0.39127000
   151  C          0.47585000       0.83596870       0.89127000
   152  C          0.02415000       0.33596870       0.60873000
   153  H          0.51620000       0.19440000       0.08200000
   154  H         -0.01620000       0.69440000       0.41800000
   155  H          0.48380000       0.80560000       0.91800000
   156  H          0.01620000       0.30560000       0.58200000
   157  C          0.45545000       0.12928170       0.04373000
   158  C          0.04455000       0.62928170       0.45627000
   159  C          0.54455000       0.87071830       0.95627000
   160  C          0.95545000       0.37071830       0.54373000
   161  H          0.40450000       0.13550000       0.97080000
   162  H          0.09550000       0.63550000       0.52920000
   163  H          0.59550000       0.86450000       0.02920000
   164  H          0.90450000       0.36450000       0.47080000
   165  C          0.46055000       0.08541150       0.08454000
   166  C          0.03945000       0.58541150       0.41546000
   167  C          0.53945000       0.91458850       0.91546000
   168  C          0.96055000       0.41458850       0.58454000
   169  H          0.41110000       0.06150000       0.04040000
   170  H          0.08890000       0.56150000       0.45960000
   171  H          0.58890000       0.93850000       0.95960000
   172  H          0.91110000       0.43850000       0.54040000
   173  C          0.53715000       0.07643120       0.18873000
   174  C          0.96285000       0.57643120       0.31127000
   175  C          0.46285000       0.92356880       0.81127000
   176  C          0.03715000       0.42356880       0.68873000
   177  C          0.61104000       0.11071130       0.25093000
   178  C          0.88896000       0.61071130       0.24907000
   179  C          0.38896000       0.88928870       0.74907000
   180  C          0.11104000       0.38928870       0.75093000
   181  H          0.66800000       0.10420000       0.32170000
   182  H          0.83200000       0.60420000       0.17830000
   183  H          0.33200000       0.89580000       0.67830000
   184  H          0.16800000       0.39580000       0.82170000
   185  C          0.60344000       0.15495120       0.21133000
   186  C          0.89656000       0.65495120       0.28867000
   187  C          0.39656000       0.84504880       0.78867000
   188  C          0.10344000       0.34504880       0.71133000
   189  H          0.65310000       0.17880000       0.25540000
   190  H          0.84690000       0.67880000       0.24460000
   191  H          0.34690000       0.82120000       0.74460000
   192  H          0.15310000       0.32120000       0.75540000
   193  N          0.47705000       0.01041160       0.21083000
   194  N          0.02295000       0.51041160       0.28917000
   195  N          0.52295000       0.98958840       0.78917000
   196  N          0.97705000       0.48958840       0.71083000
   197  N          0.55454000       0.02820120       0.26833000
   198  N          0.94546000       0.52820120       0.23167000
   199  N          0.44546000       0.97179880       0.73167000
   200  N          0.05454000       0.47179880       0.76833000
   201  C          0.94915000       0.85518110       0.61793000
   202  C          0.55085000       0.35518110       0.88207000
   203  C          0.05085000       0.14481890       0.38207000
   204  C          0.44915000       0.64481890       0.11793000
   205  H          0.93800000       0.82370000       0.63400000
   206  H          0.56200000       0.32370000       0.86600000
   207  H          0.06200000       0.17630000       0.36600000
   208  H          0.43800000       0.67630000       0.13400000
   209  C          0.88704000       0.88672110       0.69513000
   210  C          0.61296000       0.38672110       0.80487000
   211  C          0.11296000       0.11327890       0.30487000
   212  C          0.38704000       0.61327890       0.19513000
   213  H          0.83360000       0.87710000       0.76470000
   214  H          0.66640000       0.37710000       0.73530000
   215  H          0.16640000       0.12290000       0.23530000
   216  H          0.33360000       0.62290000       0.26470000
   217  C          0.90234000       0.93236110       0.67112000
   218  C          0.59766000       0.43236110       0.82888000
   219  C          0.09766000       0.06763890       0.32888000
   220  C          0.40234000       0.56763890       0.17112000
   221  H          0.86110000       0.95420000       0.72480000
   222  H          0.63890000       0.45420000       0.77520000
   223  H          0.13890000       0.04580000       0.27520000
   224  H          0.36110000       0.54580000       0.22480000
   225  C          0.97824000       0.94653900       0.56842000
   226  C          0.52176000       0.44653900       0.93158000
   227  C          0.02176000       0.05346100       0.43158000
   228  C          0.47824000       0.55346100       0.06842000
   229  C          0.04304000       0.91453100       0.49182000
   230  C          0.45696000       0.41453100       0.00818000
   231  C          0.95696000       0.08546900       0.50818000
   232  C          0.54304000       0.58546900      -0.00818000
   233  H          0.09760000       0.92390000       0.42230000
   234  H          0.40240000       0.42390000       0.07770000
   235  H          0.90240000       0.07610000       0.57770000
   236  H          0.59760000       0.57610000       0.92230000
   237  C          0.02775000       0.86933100       0.51703000
   238  C          0.47225000       0.36933100       0.98297000
   239  C          0.97225000       0.13066900       0.48297000
   240  C          0.52775000       0.63066900       0.01703000
   241  H          0.07170000       0.84740000       0.46450000
   242  H          0.42830000       0.34740000       0.03550000
   243  H          0.92830000       0.15260000       0.53550000
   244  H          0.57170000       0.65260000       0.96450000
   245  N         -0.01717000       0.99445700       0.55038160
   246  N          0.51717000       0.49445700       0.94961840
   247  N          0.01717000       0.00554300       0.44961840
   248  N          0.48283000       0.50554300       0.05038160
