data_APORUT
_symmetry_space_group_name_H-M    'P1'
_symmetry_Int_Tables_number       1
loop_
_symmetry_equiv_pos_site_id
_symmetry_equiv_pos_as_xyz
1 x,y,z
_cell_length_a                   7.70726
_cell_length_b                   29.8402
_cell_length_c                   11.45749
_cell_angle_alpha                90.0
_cell_angle_beta                 90.7481
_cell_angle_gamma                90.0
loop_
_atom_site_label
_atom_site_type_symbol
_atom_site_fract_x
_atom_site_fract_y
_atom_site_fract_z
     1  S          0.94526400       0.20593690       0.89625200
     2  S          0.55473600       0.70593690       0.60374800
     3  S          0.05473600       0.79406310       0.10374800
     4  S          0.44526400       0.29406310       0.39625200
     5  C          0.89839150       0.12703400       0.01346100
     6  C          0.60160850       0.62703400       0.48653900
     7  C          0.10160850       0.87296600       0.98653900
     8  C          0.39839150       0.37296600       0.51346100
     9  H          0.83750000       0.14450000       0.06890000
    10  H          0.66250000       0.64450000       0.43110000
    11  H          0.16250000       0.85550000       0.93110000
    12  H          0.33750000       0.35550000       0.56890000
    13  C          0.05519160       0.12223400       0.83165110
    14  C          0.44480840       0.62223400       0.66834890
    15  C          0.94480840       0.87776600       0.16834890
    16  C          0.55519160       0.37776600       0.33165110
    17  H          0.10050000       0.13630000       0.76420000
    18  H          0.39950000       0.63630000       0.73580000
    19  H          0.89950000       0.86370000       0.23580000
    20  H          0.60050000       0.36370000       0.26420000
    21  C          0.07807160       0.07656400       0.84959110
    22  C          0.42192840       0.57656400       0.65040890
    23  C          0.92192840       0.92343600       0.15040890
    24  C          0.57807160       0.42343600       0.34959110
    25  H          0.13990000       0.05920000       0.79440000
    26  H          0.36010000       0.55920000       0.70560000
    27  H          0.86010000       0.94080000       0.20560000
    28  H          0.63990000       0.44080000       0.29440000
    29  C          0.92135150       0.08160400       0.03115100
    30  C          0.57864850       0.58160400       0.46884900
    31  C          0.07864850       0.91839600       0.96884900
    32  C          0.42135150       0.41839600       0.53115100
    33  H          0.87700000       0.06770000       0.09910000
    34  H          0.62300000       0.56770000       0.40090000
    35  H          0.12300000       0.93230000       0.90090000
    36  H          0.37700000       0.43230000       0.59910000
    37  C          0.96517140       0.14715400       0.91362100
    38  C          0.53482860       0.64715400       0.58637900
    39  C          0.03482860       0.85284600       0.08637900
    40  C          0.46517140       0.35284600       0.41362100
    41  C          0.01025150       0.05625400       0.94857100
    42  C          0.48974850       0.55625400       0.55142900
    43  C         -0.01025150       0.94374600       0.05142900
    44  C          0.51025150       0.44374600       0.44857100
    45  N          0.03675140       0.00893400       0.95763900
    46  N          0.46324860       0.50893400       0.54236100
    47  N          0.96324860       0.99106600       0.04236100
    48  N          0.53675140       0.49106600       0.45763900
    49  O          0.09629110       0.22525300       0.95661700
    50  O          0.40370890       0.72525300       0.54338300
    51  O          0.90370890       0.77474700       0.04338300
    52  O          0.59629110       0.27474700       0.45661700
    53  O          0.78358110       0.21871300       0.95238700
    54  O          0.71641890       0.71871300       0.54761300
    55  O          0.21641890       0.78128700       0.04761300
    56  O          0.28358110       0.28128700       0.45238700
    57  O          0.94539110       0.21533300       0.77153700
    58  O          0.55460890       0.71533300       0.72846300
    59  O          0.05460890       0.78466700       0.22846300
    60  O          0.44539110       0.28466700       0.27153700
    61  C          0.93888150       0.25856400       0.24917100
    62  C          0.56111850       0.75856400       0.25082900
    63  C          0.06111850       0.74143600       0.75082900
    64  C          0.43888150       0.24143600       0.74917100
    65  N          0.93589130       0.27180300       0.35974900
    66  N          0.56410870       0.77180300       0.14025100
    67  N          0.06410870       0.72819700       0.64025100
    68  N          0.43589130       0.22819700       0.85974900
    69  H          0.83600000       0.27620000       0.39430000
    70  H          0.66400000       0.77620000       0.10570000
    71  H          0.16400000       0.72380000       0.60570000
    72  H          0.33600000       0.22380000       0.89430000
    73  H          0.03380000       0.27620000       0.39850000
    74  H          0.46620000       0.77620000       0.10150000
    75  H          0.96620000       0.72380000       0.60150000
    76  H          0.53380000       0.22380000       0.89850000
    77  N          0.08939130       0.25197400       0.19682900
    78  N          0.41060870       0.75197400       0.30317100
    79  N          0.91060870       0.74802600       0.80317100
    80  N          0.58939130       0.24802600       0.69682900
    81  H          0.09120000       0.24330000       0.12350000
    82  H          0.40880000       0.74330000       0.37650000
    83  H          0.90880000       0.75670000       0.87650000
    84  H          0.59120000       0.25670000       0.62350000
    85  H          0.18740000       0.25630000       0.23550000
    86  H          0.31260000       0.75630000       0.26450000
    87  H          0.81260000       0.74370000       0.76450000
    88  H          0.68740000       0.24370000       0.73550000
    89  N          0.79154130       0.25197400       0.19056900
    90  N          0.70845870       0.75197400       0.30943100
    91  N          0.20845870       0.74802600       0.80943100
    92  N          0.29154130       0.24802600       0.69056900
    93  H          0.79380000       0.24330000       0.11720000
    94  H          0.70620000       0.74330000       0.38280000
    95  H          0.20620000       0.75670000       0.88280000
    96  H          0.29380000       0.25670000       0.61720000
    97  H          0.69160000       0.25630000       0.22500000
    98  H          0.80840000       0.75630000       0.27500000
    99  H          0.30840000       0.74370000       0.77500000
   100  H          0.19160000       0.24370000       0.72500000
   101  C          0.45794150       0.05091400       0.60765110
   102  C          0.04205850       0.55091400       0.89234890
   103  C          0.54205850       0.94908600       0.39234890
   104  C          0.95794150       0.44908600       0.10765110
   105  H          0.42590000       0.02700000       0.55690000
   106  H          0.07410000       0.52700000       0.94310000
   107  H          0.57410000       0.97300000       0.44310000
   108  H          0.92590000       0.47300000       0.05690000
   109  C          0.56153160       0.90547400       0.91515110
   110  C          0.93846840       0.40547400       0.58484890
   111  C          0.43846840       0.09452600       0.08484890
   112  C          0.06153160       0.59452600       0.41515110
   113  H          0.59660000       0.92690000       0.97210000
   114  H          0.90340000       0.42690000       0.52790000
   115  H          0.40340000       0.07310000       0.02790000
   116  H          0.09660000       0.57310000       0.47210000
   117  C          0.47100150       0.91954400       0.81570110
   118  C          0.02899850       0.41954400       0.68429890
   119  C          0.52899850       0.08045600       0.18429890
   120  C          0.97100150       0.58045600       0.31570110
   121  C          0.46207170       0.84248500       0.74970120
   122  C          0.03792830       0.34248500       0.75029880
   123  C          0.53792830       0.15751500       0.25029880
   124  C          0.96207170       0.65751500       0.24970120
   125  H          0.42850000       0.82100000       0.69250000
   126  H          0.07150000       0.32100000       0.80750000
   127  H          0.57150000       0.17900000       0.30750000
   128  H          0.92850000       0.67900000       0.19250000
   129  C          0.59200160       0.07685400       0.78424110
   130  C          0.90799840       0.57685400       0.71575890
   131  C          0.40799840       0.92314600       0.21575890
   132  C          0.09200160       0.42314600       0.28424110
   133  H          0.65160000       0.07110000       0.85580000
   134  H          0.84840000       0.57110000       0.64420000
   135  H          0.34840000       0.92890000       0.14420000
   136  H          0.15160000       0.42890000       0.35580000
   137  C          0.41606160       0.09448400       0.57669110
   138  C          0.08393840       0.59448400       0.92330890
   139  C          0.58393840       0.90551600       0.42330890
   140  C          0.91606160       0.40551600       0.07669110
   141  H          0.35490000       0.10030000       0.50580000
   142  H          0.14510000       0.60030000      -0.00580000
   143  H          0.64510000       0.89970000       0.49420000
   144  H          0.85490000       0.39970000       0.00580000
   145  C          0.60121160       0.86049400       0.93196120
   146  C          0.89878840       0.36049400       0.56803880
   147  C          0.39878840       0.13950600       0.06803880
   148  C          0.10121160       0.63950600       0.43196120
   149  H          0.66280000       0.85130000       0.00030000
   150  H          0.83720000       0.35130000       0.49970000
   151  H          0.33720000       0.14870000      -0.00030000
   152  H          0.16280000       0.64870000       0.50030000
   153  C          0.55128160       0.82895400       0.84953120
   154  C          0.94871840       0.32895400       0.65046880
   155  C          0.44871840       0.17104600       0.15046880
   156  C          0.05128160       0.67104600       0.34953120
   157  H          0.57800000       0.79820000       0.86130000
   158  H          0.92200000       0.29820000       0.63870000
   159  H          0.42200000       0.20180000       0.13870000
   160  H          0.07800000       0.70180000       0.36130000
   161  C          0.42184160       0.88746400       0.73328110
   162  C          0.07815840       0.38746400       0.76671890
   163  C          0.57815840       0.11253600       0.26671890
   164  C          0.92184160       0.61253600       0.23328110
   165  H          0.36000000       0.89650000       0.66490000
   166  H          0.14000000       0.39650000       0.83510000
   167  H          0.64000000       0.10350000       0.33510000
   168  H          0.86000000       0.60350000       0.16490000
   169  C          0.54619150       0.04131400       0.71168110
   170  C          0.95380850       0.54131400       0.78831890
   171  C          0.45380850       0.95868600       0.28831890
   172  C          0.04619150       0.45868600       0.21168110
   173  C          0.46375170       0.12953400       0.64965130
   174  C          0.03624830       0.62953400       0.85034870
   175  C          0.53624830       0.87046600       0.35034870
   176  C          0.96375170       0.37046600       0.14965130
   177  H          0.43630000       0.15950000       0.62870000
   178  H          0.06370000       0.65950000       0.87130000
   179  H          0.56370000       0.84050000       0.37130000
   180  H          0.93630000       0.34050000       0.12870000
   181  C          0.43201160       0.96850400       0.79607120
   182  C          0.06798840       0.46850400       0.70392880
   183  C          0.56798840       0.03149600       0.20392880
   184  C          0.93201160       0.53149600       0.29607120
   185  H          0.40110000       0.98250000       0.87130000
   186  H          0.09890000       0.48250000       0.62870000
   187  H          0.59890000       0.01750000       0.12870000
   188  H          0.90110000       0.51750000       0.37130000
   189  H          0.33090000       0.97140000       0.74240000
   190  H          0.16910000       0.47140000       0.75760000
   191  H          0.66910000       0.02860000       0.25760000
   192  H          0.83090000       0.52860000       0.24240000
   193  C          0.55158180       0.12067500       0.75324130
   194  C          0.94841820       0.62067500       0.74675870
   195  C          0.44841820       0.87932500       0.24675870
   196  C          0.05158180       0.37932500       0.25324130
   197  H          0.58440000       0.14470000       0.80340000
   198  H          0.91560000       0.64470000       0.69660000
   199  H          0.41560000       0.85530000       0.19660000
   200  H          0.08440000       0.35530000       0.30340000
   201  C          0.58756160       0.99340400       0.74422120
   202  C          0.91243840       0.49340400       0.75577880
   203  C          0.41243840       0.00659600       0.25577880
   204  C          0.08756160       0.50659600       0.24422120
   205  H          0.68450000       0.99320000       0.80170000
   206  H          0.81550000       0.49320000       0.69830000
   207  H          0.31550000       0.00680000       0.19830000
   208  H          0.18450000       0.50680000       0.30170000
   209  H          0.62650000       0.97720000       0.67380000
   210  H          0.87350000       0.47720000       0.82620000
   211  H          0.37350000       0.02280000       0.32620000
   212  H          0.12650000       0.52280000       0.17380000
   213  C          0.03810160       0.07422400       0.34605110
   214  C          0.46189840       0.57422400       0.15394890
   215  C          0.96189840       0.92577600       0.65394890
   216  C          0.53810160       0.42577600       0.84605110
   217  H          0.06500000       0.05220000       0.28910000
   218  H          0.43500000       0.55220000       0.21090000
   219  H          0.93500000       0.94780000       0.71090000
   220  H          0.56500000       0.44780000       0.78910000
   221  C          0.92159150       0.01235400       0.47315110
   222  C          0.57840850       0.51235400       0.02684890
   223  C          0.07840850       0.98764600       0.52684890
   224  C          0.42159150       0.48764600       0.97315110
   225  H          0.88730000      -0.00260000       0.39920000
   226  H          0.61270000       0.49740000       0.10080000
   227  H          0.11270000       0.00260000       0.60080000
   228  H          0.38730000       0.50260000       0.89920000
   229  H          0.82270000       0.01020000       0.52710000
   230  H          0.67730000       0.51020000       0.97290000
   231  H          0.17730000       0.98980000       0.47290000
   232  H          0.32270000       0.48980000       0.02710000
   233  C          0.07887170       0.11872500       0.32529120
   234  C          0.42112830       0.61872500       0.17470880
   235  C          0.92112830       0.88127500       0.67470880
   236  C          0.57887170       0.38127500       0.82529120
   237  H          0.13430000       0.12700000       0.25500000
   238  H          0.36570000       0.62700000       0.24500000
   239  H          0.86570000       0.87300000       0.74500000
   240  H          0.63430000       0.37300000       0.75500000
   241  C          0.95618180       0.13885500       0.50953120
   242  C          0.54381820       0.63885500      -0.00953120
   243  C          0.04381820       0.86114500       0.49046880
   244  C          0.45618180       0.36114500       0.00953120
   245  H          0.92680000       0.16100000       0.56540000
   246  H          0.57320000       0.66100000       0.93460000
   247  H          0.07320000       0.83900000       0.43460000
   248  H          0.42680000       0.33900000       0.06540000
   249  C          0.95838150       0.06117400       0.44895110
   250  C          0.54161850       0.56117400       0.05104890
   251  C          0.04161850       0.93882600       0.55104890
   252  C          0.45838150       0.43882600       0.94895110
   253  C          0.03848180       0.15110400       0.40748130
   254  C          0.46151820       0.65110400       0.09251870
   255  C          0.96151820       0.84889600       0.59251870
   256  C          0.53848180       0.34889600       0.90748130
   257  H          0.06710000       0.18160000       0.39390000
   258  H          0.43290000       0.68160000       0.10610000
   259  H          0.93290000       0.81840000       0.60610000
   260  H          0.56710000       0.31840000       0.89390000
   261  C          0.91663160       0.09411400       0.53020110
   262  C          0.58336840       0.59411400       0.96979890
   263  C          0.08336840       0.90588600       0.46979890
   264  C          0.41663160       0.40588600       0.03020110
   265  H          0.86060000       0.08590000       0.60040000
   266  H          0.63940000       0.58590000       0.89960000
   267  H          0.13940000       0.91410000       0.39960000
   268  H          0.36060000       0.41410000       0.10040000
