data_APOSAA
_symmetry_space_group_name_H-M    'P1'
_symmetry_Int_Tables_number       1
loop_
_symmetry_equiv_pos_site_id
_symmetry_equiv_pos_as_xyz
1 x,y,z
_cell_length_a                   7.75036
_cell_length_b                   30.1822
_cell_length_c                   11.54829
_cell_angle_alpha                90.0
_cell_angle_beta                 90.5832
_cell_angle_gamma                90.0
loop_
_atom_site_label
_atom_site_type_symbol
_atom_site_fract_x
_atom_site_fract_y
_atom_site_fract_z
     1  C          0.92682000       0.24026600       0.25128160
     2  C          0.57318000       0.74026600       0.24871840
     3  C          0.07318000       0.75973400       0.74871840
     4  C          0.42682000       0.25973400       0.75128160
     5  N          0.07552000       0.24617600       0.19783140
     6  N          0.42448000       0.74617600       0.30216860
     7  N          0.92448000       0.75382400       0.80216860
     8  N          0.57552000       0.25382400       0.69783140
     9  H          0.17340000       0.24200000       0.23550000
    10  H          0.32660000       0.74200000       0.26450000
    11  H          0.82660000       0.75800000       0.76450000
    12  H          0.67340000       0.25800000       0.73550000
    13  H          0.07640000       0.25430000       0.12470000
    14  H          0.42360000       0.75430000       0.37530000
    15  H          0.92360000       0.74570000       0.87530000
    16  H          0.57640000       0.24570000       0.62470000
    17  N          0.77992000       0.24634500       0.19377140
    18  N          0.72008000       0.74634500       0.30622860
    19  N          0.22008000       0.75365500       0.80622860
    20  N          0.27992000       0.25365500       0.69377140
    21  H          0.68080000       0.24220000       0.22870000
    22  H          0.81920000       0.74220000       0.27130000
    23  H          0.31920000       0.75780000       0.77130000
    24  H          0.18080000       0.25780000       0.72870000
    25  H          0.78140000       0.25450000       0.12060000
    26  H          0.71860000       0.75450000       0.37940000
    27  H          0.21860000       0.74550000       0.87940000
    28  H          0.28140000       0.24550000       0.62060000
    29  N          0.92502000       0.22805500       0.36105130
    30  N          0.57498000       0.72805500       0.13894870
    31  N          0.07498000       0.77194500       0.63894870
    32  N          0.42502000       0.27194500       0.86105130
    33  H          0.02280000       0.22380000       0.39890000
    34  H          0.47720000       0.72380000       0.10110000
    35  H          0.97720000       0.77620000       0.60110000
    36  H          0.52280000       0.27620000       0.89890000
    37  H          0.82610000       0.22410000       0.39640000
    38  H          0.67390000       0.72410000       0.10360000
    39  H          0.17390000       0.77590000       0.60360000
    40  H          0.32610000       0.27590000       0.89640000
    41  C          0.45962000       0.15182600       0.41905150
    42  C          0.04038000       0.65182600       0.08094850
    43  C          0.54038000       0.84817400       0.58094850
    44  C          0.95962000       0.34817400       0.91905150
    45  C          0.55582000       0.12786600       0.33976170
    46  C          0.94418000       0.62786600       0.16023830
    47  C          0.44418000       0.87213400       0.66023830
    48  C          0.05582000       0.37213400       0.83976170
    49  H          0.59990000       0.14200000       0.27280000
    50  H          0.90010000       0.64200000       0.22720000
    51  H          0.40010000       0.85800000       0.72720000
    52  H          0.09990000       0.35800000       0.77280000
    53  C          0.58673000       0.08354700       0.35878190
    54  C          0.91327000       0.58354700       0.14121810
    55  C          0.41327000       0.91645300       0.64121810
    56  C          0.08673000       0.41645300       0.85878190
    57  H          0.65230000       0.06730000       0.30430000
    58  H          0.84770000       0.56730000       0.19570000
    59  H          0.34770000       0.93270000       0.69570000
    60  H          0.15230000       0.43270000       0.80430000
    61  C          0.52422000       0.06226600       0.45542000
    62  C          0.97578000       0.56226600       0.04458000
    63  C          0.47578000       0.93773400       0.54458000
    64  C          0.02422000       0.43773400       0.95542000
    65  C          0.42783000       0.08667700       0.53371190
    66  C          0.07217000       0.58667700       0.96628810
    67  C          0.57217000       0.91332300       0.46628810
    68  C          0.92783000       0.41332300       0.03371190
    69  H          0.38380000       0.07250000       0.60060000
    70  H          0.11620000       0.57250000       0.89940000
    71  H          0.61620000       0.92750000       0.39940000
    72  H          0.88380000       0.42750000       0.10060000
    73  C          0.39442000       0.13130600       0.51615170
    74  C          0.10558000       0.63130600       0.98384830
    75  C          0.60558000       0.86869400       0.48384830
    76  C          0.89442000       0.36869400       0.01615170
    77  H          0.32760000       0.14750000       0.57010000
    78  H          0.17240000       0.64750000       0.92990000
    79  H          0.67240000       0.85250000       0.42990000
    80  H          0.82760000       0.35250000       0.07010000
    81  C          0.56313000       0.01349700       0.47233000
    82  C          0.93687000       0.51349700       0.02767000
    83  C          0.43687000       0.98650300       0.52767000
    84  C          0.06313000       0.48650300       0.97233000
    85  H          0.58550000       0.00050000       0.39520000
    86  H          0.91450000       0.50050000       0.10480000
    87  H          0.41450000      -0.00050000       0.60480000
    88  H          0.08550000       0.49950000       0.89520000
    89  H          0.67170000       0.01120000       0.51790000
    90  H          0.82830000       0.51120000       0.98210000
    91  H          0.32830000       0.98880000       0.48210000
    92  H          0.17170000       0.48880000       0.01790000
    93  O          0.42875170       0.21790400       0.27621110
    94  O          0.07124830       0.71790400       0.22378890
    95  O          0.57124830       0.78209600       0.72378890
    96  O          0.92875170       0.28209600       0.77621110
    97  O          0.58218160       0.23005400       0.45653110
    98  O          0.91781840       0.73005400       0.04346890
    99  O          0.41781840       0.76994600       0.54346890
   100  O          0.08218160       0.26994600       0.95653110
   101  O          0.27236150       0.22140400       0.45667110
   102  O          0.22763850       0.72140400       0.04332890
   103  O          0.72763850       0.77859600       0.54332890
   104  O          0.77236150       0.27859600       0.95667110
   105  S          0.43258600       0.20942515       0.39990400
   106  S          0.06741400       0.70942515       0.10009600
   107  S          0.56741400       0.79057485       0.60009600
   108  S          0.93258600       0.29057485       0.89990400
   109  C          0.96057000       0.12678700       0.16552000
   110  C          0.53943000       0.62678700       0.33448000
   111  C          0.03943000       0.87321300       0.83448000
   112  C          0.46057000       0.37321300       0.66552000
   113  H          0.93300000       0.15690000       0.14970000
   114  H          0.56700000       0.65690000       0.35030000
   115  H          0.06700000       0.84310000       0.85030000
   116  H          0.43300000       0.34310000       0.64970000
   117  C          0.04743000       0.11578700       0.26552000
   118  C          0.45257000       0.61578700       0.23448000
   119  C          0.95257000       0.88421300       0.73448000
   120  C          0.54743000       0.38421300       0.76552000
   121  H          0.08020000       0.13830000       0.31880000
   122  H          0.41980000       0.63830000       0.18120000
   123  H          0.91980000       0.86170000       0.68120000
   124  H          0.58020000       0.36170000       0.81880000
   125  C          0.08753000       0.07211700       0.28909180
   126  C          0.41247000       0.57211700       0.21090820
   127  C          0.91247000       0.92788300       0.71090820
   128  C          0.58753000       0.42788300       0.78909180
   129  H          0.14660000       0.06480000       0.35900000
   130  H          0.35340000       0.56480000       0.14100000
   131  H          0.85340000       0.93520000       0.64100000
   132  H          0.64660000       0.43520000       0.85900000
   133  C          0.04242000       0.03870600       0.21188170
   134  C          0.45758000       0.53870600       0.28811830
   135  C          0.95758000       0.96129400       0.78811830
   136  C          0.54242000       0.46129400       0.71188170
   137  C          0.95468000       0.05061600       0.11166170
   138  C          0.54532000       0.55061600       0.38833830
   139  C          0.04532000       0.94938400       0.88833830
   140  C          0.45468000       0.44938400       0.61166170
   141  H          0.92210000       0.02820000       0.05790000
   142  H          0.57790000       0.52820000       0.44210000
   143  H          0.07790000       0.97180000       0.94210000
   144  H          0.42210000       0.47180000       0.55790000
   145  C          0.91337000       0.09410700       0.08778180
   146  C          0.58663000       0.59410700       0.41221820
   147  C          0.08663000       0.90589300       0.91221820
   148  C          0.41337000       0.40589300       0.58778180
   149  H          0.85300000       0.10150000       0.01850000
   150  H          0.64700000       0.60150000       0.48150000
   151  H          0.14700000       0.89850000       0.98150000
   152  H          0.35300000       0.39850000       0.51850000
   153  C          0.08393000       0.99067700       0.23672190
   154  C          0.41607000       0.49067700       0.26327810
   155  C          0.91607000       0.00932300       0.76327810
   156  C          0.58393000       0.50932300       0.73672190
   157  H          0.18630000       0.98930000       0.28860000
   158  H          0.31370000       0.48930000       0.21140000
   159  H          0.81370000       0.01070000       0.71140000
   160  H          0.68630000       0.51070000       0.78860000
   161  H          0.11420000       0.97580000       0.16320000
   162  H          0.38580000       0.47580000       0.33680000
   163  H          0.88580000       0.02420000       0.83680000
   164  H          0.61420000       0.52420000       0.66320000
   165  C          0.05733000       0.82769700       0.33492000
   166  C          0.44267000       0.32769700       0.16508000
   167  C          0.94267000       0.17230300       0.66508000
   168  C          0.55733000       0.67230300       0.83492000
   169  H          0.08500000       0.79720000       0.34410000
   170  H          0.41500000       0.29720000       0.15590000
   171  H          0.91500000       0.20280000       0.65590000
   172  H          0.58500000       0.70280000       0.84410000
   173  C          0.96787000       0.84173700       0.23812000
   174  C          0.53213000       0.34173700       0.26188000
   175  C          0.03213000       0.15826300       0.76188000
   176  C          0.46787000       0.65826300       0.73812000
   177  H          0.93420000       0.82100000       0.18030000
   178  H          0.56580000       0.32100000       0.31970000
   179  H          0.06580000       0.17900000       0.81970000
   180  H          0.43420000       0.67900000       0.68030000
   181  C          0.92687000       0.88619700       0.22495190
   182  C          0.57313000       0.38619700       0.27504810
   183  C          0.07313000       0.11380300       0.77504810
   184  C          0.42687000       0.61380300       0.72495190
   185  H          0.86490000       0.89560000       0.15800000
   186  H          0.63510000       0.39560000       0.34200000
   187  H          0.13510000       0.10440000       0.84200000
   188  H          0.36490000       0.60440000       0.65800000
   189  C          0.97508000       0.91703700       0.30804170
   190  C          0.52492000       0.41703700       0.19195830
   191  C          0.02492000       0.08296300       0.69195830
   192  C          0.47508000       0.58296300       0.80804170
   193  C          0.06543000       0.90217700       0.40491180
   194  C          0.43457000       0.40217700       0.09508820
   195  C          0.93457000       0.09782300       0.59508820
   196  C          0.56543000       0.59782300       0.90491180
   197  H          0.09950000       0.92280000       0.46300000
   198  H          0.40050000       0.42280000       0.03700000
   199  H          0.90050000       0.07720000       0.53700000
   200  H          0.59950000       0.57720000       0.96300000
   201  C          0.10643000       0.85775700       0.41811190
   202  C          0.39357000       0.35775700       0.08188810
   203  C          0.89357000       0.14224300       0.58188810
   204  C          0.60643000       0.64224300       0.91811190
   205  H          0.16850000       0.84810000       0.48480000
   206  H          0.33150000       0.34810000       0.01520000
   207  H          0.83150000       0.15190000       0.51520000
   208  H          0.66850000       0.65190000       0.98480000
   209  C          0.93637000       0.96556700       0.29252000
   210  C          0.56363000       0.46556700       0.20748000
   211  C          0.06363000       0.03443300       0.70748000
   212  C          0.43637000       0.53443300       0.79252000
   213  H          0.91220000       0.97880000       0.36910000
   214  H          0.58780000       0.47880000       0.13090000
   215  H          0.08780000       0.02120000       0.63090000
   216  H          0.41220000       0.52120000       0.86910000
   217  H          0.83140000       0.96880000       0.24370000
   218  H          0.66860000       0.46880000       0.25630000
   219  H          0.16860000       0.03120000       0.75630000
   220  H          0.33140000       0.53120000       0.74370000
   221  C          0.47403000       0.84921800       0.07792000
   222  C          0.02597000       0.34921800       0.42208000
   223  C          0.52597000       0.15078200       0.92208000
   224  C          0.97403000       0.65078200       0.57792000
   225  H          0.45020000       0.81860000       0.08890000
   226  H          0.04980000       0.31860000       0.41110000
   227  H          0.54980000       0.18140000       0.91110000
   228  H          0.95020000       0.68140000       0.58890000
   229  C          0.42783000       0.87953800       0.16072000
   230  C          0.07217000       0.37953800       0.33928000
   231  C          0.57217000       0.12046200       0.83928000
   232  C          0.92783000       0.62046200       0.66072000
   233  H          0.37230000       0.87000000       0.22930000
   234  H          0.12770000       0.37000000       0.27070000
   235  H          0.62770000       0.13000000       0.77070000
   236  H          0.87230000       0.63000000       0.72930000
   237  C          0.46213000       0.92385700       0.14381180
   238  C          0.03787000       0.42385700       0.35618820
   239  C          0.53787000       0.07614300       0.85618820
   240  C          0.96213000       0.57614300       0.64381180
   241  H          0.43030000       0.94460000       0.20160000
   242  H          0.06970000       0.44460000       0.29840000
   243  H          0.56970000       0.05540000       0.79840000
   244  H          0.93030000       0.55540000       0.70160000
   245  C          0.54172000       0.93873700       0.04471180
   246  C          0.95828000       0.43873700       0.45528820
   247  C          0.45828000       0.06126300       0.95528820
   248  C          0.04172000       0.56126300       0.54471180
   249  C          0.58813000       0.90762800       0.96264820
   250  C          0.91187000       0.40762800       0.53735180
   251  C          0.41187000       0.09237200       0.03735180
   252  C          0.08813000       0.59237200       0.46264820
   253  H          0.64380000       0.91700000       0.89400000
   254  H          0.85620000       0.41700000       0.60600000
   255  H          0.35620000       0.08300000       0.10600000
   256  H          0.14380000       0.58300000       0.39400000
   257  C          0.55463000       0.86317800       0.97928000
   258  C          0.94537000       0.36317800       0.52072000
   259  C          0.44537000       0.13682200       0.02072000
   260  C          0.05463000       0.63682200       0.47928000
   261  H          0.58740000       0.84220000       0.92220000
   262  H          0.91260000       0.34220000       0.57780000
   263  H          0.41260000       0.15780000       0.07780000
   264  H          0.08740000       0.65780000       0.42220000
   265  C          0.57603000       0.98750700       0.02632000
   266  C          0.92397000       0.48750700       0.47368000
   267  C          0.42397000       0.01249300       0.97368000
   268  C          0.07603000       0.51249300       0.52632000
   269  H          0.67660000       0.99080000       0.97480000
   270  H          0.82340000       0.49080000       0.52520000
   271  H          0.32340000       0.00920000       0.02520000
   272  H          0.17660000       0.50920000       0.47480000
   273  H          0.60660000       0.00120000       0.10170000
   274  H          0.89340000       0.50120000       0.39830000
   275  H          0.39340000      -0.00120000       0.89830000
   276  H          0.10660000       0.49880000       0.60170000
