data_APOSII
_symmetry_space_group_name_H-M    'P1'
_symmetry_Int_Tables_number       1
loop_
_symmetry_equiv_pos_site_id
_symmetry_equiv_pos_as_xyz
1 x,y,z
_cell_length_a                   6.15328
_cell_length_b                   7.22221
_cell_length_c                   18.2832
_cell_angle_alpha                95.4932
_cell_angle_beta                 98.8522
_cell_angle_gamma                92.4242
loop_
_atom_site_label
_atom_site_type_symbol
_atom_site_fract_x
_atom_site_fract_y
_atom_site_fract_z
     1  S          0.79272500       0.74152500       0.38742518
     2  S          0.20727500       0.25847500       0.61257482
     3  C          0.00022000       0.71452000       0.26504800
     4  C         -0.00022000       0.28548000       0.73495200
     5  H          0.11790000       0.78710000       0.29590000
     6  H          0.88210000       0.21290000       0.70410000
     7  C          0.81232000       0.66578190       0.29378800
     8  C          0.18768000       0.33421810       0.70621200
     9  C          0.84472000       0.55042000       0.14717800
    10  C          0.15528000       0.44958000       0.85282200
    11  C          0.64122000       0.55612000       0.24936800
    12  C          0.35878000       0.44388000       0.75063200
    13  H          0.51330000       0.52160000       0.26920000
    14  H          0.48670000       0.47840000       0.73080000
    15  C          0.65813000       0.49762000       0.17624800
    16  C          0.34187000       0.50238000       0.82375200
    17  H          0.54240000       0.42150000       0.14590000
    18  H          0.45760000       0.57850000       0.85410000
    19  C          0.01752000       0.65772000       0.19146800
    20  C         -0.01752000       0.34228000       0.80853200
    21  H          0.14570000       0.69180000       0.17170000
    22  H          0.85430000       0.30820000       0.82830000
    23  C          0.02673000       0.54172000       0.04017800
    24  C         -0.02673000       0.45828000       0.95982200
    25  H          0.16330000       0.49260000       0.06520000
    26  H          0.83670000       0.50740000       0.93480000
    27  H          0.04640000       0.67910000       0.04320000
    28  H          0.95360000       0.32090000       0.95680000
    29  O          0.55822160       0.72998140       0.39300600
    30  O          0.44177840       0.27001860       0.60699400
    31  O          0.88630170       0.93290140       0.40098600
    32  O          0.11369830       0.06709860       0.59901400
    33  O          0.84261190       0.48787160       0.07367600
    34  O          0.15738810       0.51212840       0.92632400
    35  O          0.91685180       0.61617150       0.43342600
    36  O          0.08314820       0.38382850       0.56657400
    37  C          0.43372000       0.24362000       0.42628800
    38  C          0.56628000       0.75638000       0.57371200
    39  N          0.31752000       0.39458180       0.42451700
    40  N          0.68248000       0.60541820       0.57548300
    41  H          0.38340000       0.50430000       0.42280000
    42  H          0.61660000       0.49570000       0.57720000
    43  H          0.17470000       0.38480000       0.42500000
    44  H          0.82530000       0.61520000       0.57500000
    45  N          0.33772000       0.07657180       0.42753700
    46  N          0.66228000       0.92342820       0.57246300
    47  H          0.41650000       0.97770000       0.42780000
    48  H          0.58350000       0.02230000       0.57220000
    49  H          0.19510000       0.06440000       0.42810000
    50  H          0.80490000       0.93560000       0.57190000
    51  N          0.64792000       0.26026180       0.42547800
    52  N          0.35208000       0.73973820       0.57452200
    53  H          0.72580000       0.16080000       0.42580000
    54  H          0.27420000       0.83920000       0.57420000
    55  H          0.71280000       0.37080000       0.42460000
    56  H          0.28720000       0.62920000       0.57540000
    57  C          0.13233000       0.14932000       0.16183100
    58  C          0.86767000       0.85068000       0.83816900
    59  H         -0.00470000       0.20550000       0.16130000
    60  H          0.00470000       0.79450000       0.83870000
    61  C          0.52803000      -0.01662000       0.16238100
    62  C          0.47197000       0.01662000       0.83761900
    63  H          0.66450000       0.92620000       0.16330000
    64  H          0.33550000       0.07380000       0.83670000
    65  C          0.39533000      -0.00402000       0.09460900
    66  C          0.60467000       0.00402000       0.90539100
    67  C          0.26723000       0.13562000       0.22854100
    68  C          0.73277000       0.86438000       0.77145900
    69  H          0.22400000       0.18300000       0.27410000
    70  H          0.77600000       0.81700000       0.72590000
    71  C          0.19713000       0.08102000       0.09561900
    72  C          0.80287000       0.91898000       0.90438100
    73  H          0.10410000       0.09250000       0.04990000
    74  H          0.89590000       0.90750000       0.95010000
    75  C          0.46433000       0.05293000       0.22868100
    76  C          0.53567000       0.94707000       0.77131900
    77  H          0.55750000       0.04340000       0.27450000
    78  H          0.44250000       0.95660000       0.72550000
    79  C          0.46534000       0.92308000       0.02215100
    80  C          0.53466000       0.07692000       0.97784900
    81  H          0.34160000       0.84560000       0.99150000
    82  H          0.65840000       0.15440000       0.00850000
    83  H          0.58990000       0.84220000       0.03280000
    84  H          0.41010000       0.15780000       0.96720000
