data_AQAHAE
_symmetry_space_group_name_H-M    'P1'
_symmetry_Int_Tables_number       1
loop_
_symmetry_equiv_pos_site_id
_symmetry_equiv_pos_as_xyz
1 x,y,z
_cell_length_a                   7.33593
_cell_length_b                   10.69424
_cell_length_c                   12.91305
_cell_angle_alpha                72.5363
_cell_angle_beta                 75.9293
_cell_angle_gamma                85.9963
loop_
_atom_site_label
_atom_site_type_symbol
_atom_site_fract_x
_atom_site_fract_y
_atom_site_fract_z
     1  I          0.83793500       0.08004300       0.60160300
     2  I          0.16206500       0.91995700       0.39839700
     3  I          0.58546600       0.41064400       0.89770300
     4  I          0.41453400       0.58935600       0.10229700
     5  I          0.71239500       0.25194300       0.74627300
     6  I          0.28760500       0.74805700       0.25372700
     7  C          0.37197000       0.90205000       0.73984000
     8  C          0.62803000       0.09795000       0.26016000
     9  N          0.34627000       0.94134000       0.63874000
    10  N          0.65373000       0.05866000       0.36126000
    11  H          0.38350000       0.89360000       0.59460000
    12  H          0.61650000       0.10640000       0.40540000
    13  H          0.29190000       0.01500000       0.61610000
    14  H          0.70810000       0.98500000       0.38390000
    15  C          0.19108000       0.08365000       0.79784000
    16  C          0.80892000       0.91635000       0.20216000
    17  H          0.13720000       0.12150000       0.73750000
    18  H          0.86280000       0.87850000       0.26250000
    19  N          0.45317000       0.79144000       0.77984000
    20  N          0.54683000       0.20856000       0.22016000
    21  H          0.49280000       0.74040000       0.73880000
    22  H          0.50720000       0.25960000       0.26120000
    23  H          0.46700000       0.76950000       0.84720000
    24  H          0.53300000       0.23050000       0.15280000
    25  C          0.16759000       0.12156000       0.88994000
    26  C          0.83241000       0.87844000       0.11006000
    27  H          0.09410000       0.19050000       0.90680000
    28  H          0.90590000       0.80950000       0.09320000
    29  N          0.36338000       0.94765000       0.90864000
    30  N          0.63662000       0.05235000       0.09136000
    31  C          0.27601000       0.03626000       0.95535000
    32  C          0.72399000       0.96374000       0.04465000
    33  H          0.28570000       0.04110000       0.02450000
    34  H          0.71430000       0.95890000       0.97550000
    35  N          0.30906000       0.97874000       0.80963000
    36  N          0.69094000       0.02126000       0.19037000
    37  I          0.63821500       0.69733300       0.52528300
    38  I          0.36178500       0.30266700       0.47471700
    39  C          0.85337000       0.46255000       0.32724000
    40  C          0.14663000       0.53745000       0.67276000
    41  N          0.88887000       0.43144000       0.42593000
    42  N          0.11113000       0.56856000       0.57407000
    43  H          0.83680000       0.47430000       0.47200000
    44  H          0.16320000       0.52570000       0.52800000
    45  H          0.96420000       0.36810000       0.44490000
    46  H          0.03580000       0.63190000       0.55510000
    47  C          0.03808000       0.27815000       0.27334000
    48  C          0.96192000       0.72185000       0.72666000
    49  H          0.07100000       0.23150000       0.33950000
    50  H          0.92900000       0.76850000       0.66050000
    51  N          0.74097000       0.55704000       0.29354000
    52  N          0.25903000       0.44296000       0.70646000
    53  H          0.68600000       0.60230000       0.33710000
    54  H          0.31400000       0.39770000       0.66290000
    55  H          0.72130000       0.57440000       0.22770000
    56  H          0.27870000       0.42560000       0.77230000
    57  C          0.08159000       0.24825000       0.17664000
    58  C          0.91841000       0.75175000       0.82336000
    59  H          0.14950000       0.17610000       0.16210000
    60  H          0.85050000       0.82390000       0.83790000
    61  N          0.91397000       0.43535000       0.14743000
    62  N          0.08603000       0.56465000       0.85257000
    63  C          0.00321000       0.34786000       0.10175000
    64  C         -0.00321000       0.65214000       0.89825000
    65  H          0.01370000       0.35120000       0.02770000
    66  H          0.98630000       0.64880000       0.97230000
    67  N          0.93496000       0.39174000       0.25503000
    68  N          0.06504000       0.60826000       0.74497000
