data_AQEJEO01
_symmetry_space_group_name_H-M    'P1'
_symmetry_Int_Tables_number       1
loop_
_symmetry_equiv_pos_site_id
_symmetry_equiv_pos_as_xyz
1 x,y,z
_cell_length_a                   9.50634
_cell_length_b                   12.55865
_cell_length_c                   21.50859
_cell_angle_alpha                90.0
_cell_angle_beta                 90.0
_cell_angle_gamma                90.0
loop_
_atom_site_label
_atom_site_type_symbol
_atom_site_fract_x
_atom_site_fract_y
_atom_site_fract_z
     1  O          0.96118180       0.59337130       0.56079700
     2  O          0.46118180       0.90662870       0.43920300
     3  O          0.03881820       0.09337130       0.93920300
     4  O          0.53881820       0.40662870       0.06079700
     5  O          0.96372180       0.76650140       0.49155800
     6  O          0.46372180       0.73349860       0.50844200
     7  O          0.03627820       0.26650140       0.00844200
     8  O          0.53627820       0.23349860       0.99155800
     9  N          0.90162000       0.61093160       0.66131900
    10  N          0.40162000       0.88906840       0.33868100
    11  N          0.09838000       0.11093160       0.83868100
    12  N          0.59838000       0.38906840       0.16131900
    13  C          0.90202000       0.64606180       0.60324110
    14  C          0.40202000       0.85393820       0.39675890
    15  C          0.09798000       0.14606180       0.89675890
    16  C          0.59798000       0.35393820       0.10324110
    17  C          0.82972000       0.74686180       0.58746100
    18  C          0.32972000       0.75313820       0.41253900
    19  C          0.17028000       0.24686180       0.91253900
    20  C          0.67028000       0.25313820       0.08746100
    21  C          0.72282000       0.78813190       0.62529110
    22  C          0.22282000       0.71186810       0.37470890
    23  C          0.27718000       0.28813190       0.87470890
    24  C          0.77718000       0.21186810       0.12529110
    25  H          0.69852000       0.75265190       0.66170110
    26  H          0.19852000       0.74734810       0.33829890
    27  H          0.30148000       0.25265190       0.83829890
    28  H          0.80148000       0.24734810       0.16170110
    29  C          0.65312000       0.88056190       0.60942110
    30  C          0.15312000       0.61943810       0.39057890
    31  C          0.34688000       0.38056190       0.89057890
    32  C          0.84688000       0.11943810       0.10942110
    33  H          0.58082000       0.90616190       0.63446110
    34  H          0.08082000       0.59383810       0.36553890
    35  H          0.41918000       0.40616190       0.86553890
    36  H          0.91918000       0.09383810       0.13446110
    37  C          0.69132000       0.93519190       0.55581110
    38  C          0.19132000       0.56480810       0.44418890
    39  C          0.30868000       0.43519190       0.94418890
    40  C          0.80868000       0.06480810       0.05581110
    41  H          0.64572000      -0.00165810       0.54559110
    42  H          0.14572000       0.50165810       0.45440890
    43  H          0.35428000       0.49834190       0.95440890
    44  H          0.85428000       0.00165810       0.04559110
    45  C          0.79652000       0.89650190       0.51754110
    46  C          0.29652000       0.60349810       0.48245890
    47  C          0.20348000       0.39650190       0.98245890
    48  C          0.70348000       0.10349810       0.01754110
    49  H          0.82212000       0.93406190       0.48203110
    50  H          0.32212000       0.56593810       0.51796890
    51  H          0.17788000       0.43406190       0.01796890
    52  H          0.67788000       0.06593810       0.98203110
    53  C          0.86442000       0.80079190       0.53223110
    54  C          0.36442000       0.69920810       0.46776890
    55  C          0.13558000       0.30079190       0.96776890
    56  C          0.63558000       0.19920810       0.03223110
    57  H         -0.00870000       0.70701100       0.50189000
    58  H          0.49130000       0.79298900       0.49811000
    59  H          0.00870000       0.20701100      -0.00189000
    60  H          0.50870000       0.29298900       0.00189000
    61  H          0.94202000       0.55166160       0.67034900
    62  H          0.44202000       0.94833840       0.32965100
    63  H          0.05798000       0.05166160       0.82965100
    64  H          0.55798000       0.44833840       0.17034900
    65  H          0.86092000       0.64740160       0.68998900
    66  H          0.36092000       0.85259840       0.31001100
    67  H          0.13908000       0.14740160       0.81001100
    68  H          0.63908000       0.35259840       0.18998900
    69  O          0.29400170       0.78663130       0.81041700
    70  O          0.79400170       0.71336870       0.18958300
    71  O          0.70599830       0.28663130       0.68958300
    72  O          0.20599830       0.21336870       0.31041700
    73  O          0.50321190       0.83892140       0.74061800
    74  O          0.00321190       0.66107860       0.25938200
    75  O          0.49678810       0.33892140       0.75938200
    76  O         -0.00321190       0.16107860       0.24061800
    77  N          0.26732000       0.85926170       0.90517900
    78  N          0.76732000       0.64073830       0.09482100
    79  N          0.73268000       0.35926170       0.59482100
    80  N          0.23268000       0.14073830       0.40517900
    81  C          0.32822000       0.85721190       0.84989100
    82  C          0.82822000       0.64278810       0.15010900
    83  C          0.67178000       0.35721190       0.65010900
    84  C          0.17178000       0.14278810       0.34989100
    85  C          0.43722000       0.93633180       0.83371100
    86  C          0.93722000       0.56366820       0.16628900
    87  C          0.56278000       0.43633180       0.66628900
    88  C          0.06278000       0.06366820       0.33371100
    89  C          0.46133000       0.02609190       0.87079110
    90  C          0.96133000       0.47390810       0.12920890
    91  C          0.53867000       0.52609190       0.62920890
    92  C          0.03867000       0.97390810       0.37079110
    93  H          0.40513000       0.03795190       0.90551110
    94  H          0.90513000       0.46204810       0.09448890
    95  H          0.59487000       0.53795190       0.59448890
    96  H          0.09487000       0.96204810       0.40551110
    97  C          0.56703000       0.09722000       0.85664120
    98  C          0.06703000       0.40278000       0.14335880
    99  C          0.43297000       0.59722000       0.64335880
   100  C          0.93297000       0.90278000       0.35664120
   101  H          0.58103000       0.15712000       0.88129120
   102  H          0.08103000       0.34288000       0.11870880
   103  H          0.41897000       0.65712000       0.61870880
   104  H          0.91897000       0.84288000       0.38129120
   105  C          0.65273000       0.07892000       0.80528110
   106  C          0.15273000       0.42108000       0.19471890
   107  C          0.34727000       0.57892000       0.69471890
   108  C          0.84727000       0.92108000       0.30528110
   109  H          0.72563000       0.12592000       0.79635110
   110  H          0.22563000       0.37408000       0.20364890
   111  H          0.27437000       0.62592000       0.70364890
   112  H          0.77437000       0.87408000       0.29635110
   113  C          0.52082000       0.92083180       0.78051100
   114  C          0.02082000       0.57916820       0.21948900
   115  C          0.47918000       0.42083180       0.71948900
   116  C          0.97918000       0.07916820       0.28051100
   117  C          0.63072000      -0.00825810       0.76749110
   118  C          0.13072000       0.50825810       0.23250890
   119  C          0.36928000       0.49174190       0.73250890
   120  C          0.86928000       0.00825810       0.26749110
   121  H          0.68882000       0.98004190       0.73338110
   122  H          0.18882000       0.51995810       0.26661890
   123  H          0.31118000       0.48004190       0.76661890
   124  H          0.81118000       0.01995810       0.23338110
   125  H          0.43520000       0.80351500       0.75139000
   126  H          0.93520000       0.69648500       0.24861000
   127  H          0.56480000       0.30351500       0.74861000
   128  H          0.06480000       0.19648500       0.25139000
   129  H          0.20442000       0.81271170       0.91447900
   130  H          0.70442000       0.68728830       0.08552100
   131  H          0.79558000       0.31271170       0.58552100
   132  H          0.29558000       0.18728830       0.41447900
   133  H          0.29072000       0.90715170       0.93183900
   134  H          0.79072000       0.59284830       0.06816100
   135  H          0.70928000       0.40715170       0.56816100
   136  H          0.20928000       0.09284830       0.43183900
   137  O          0.04770160       0.39784130       0.66647700
   138  O          0.54770160       0.10215870       0.33352300
   139  O          0.95229840       0.89784130       0.83352300
   140  O          0.45229840       0.60215870       0.16647700
   141  O          0.11215180       0.42522130       0.56762700
   142  O          0.61215180       0.07477870       0.43237300
   143  O          0.88784820       0.92522130       0.93237300
   144  O          0.38784820       0.57477870       0.06762700
   145  O          0.16371180       0.24351130       0.72784700
   146  O          0.66371180       0.25648870       0.27215300
   147  O          0.83628820       0.74351130       0.77215300
   148  O          0.33628820       0.75648870       0.22784700
   149  C          0.43613000       0.13482000       0.62843130
   150  C          0.93613000       0.36518000       0.37156870
   151  C          0.56387000       0.63482000       0.87156870
   152  C          0.06387000       0.86518000       0.12843130
   153  H          0.50653000       0.08352000       0.63054130
   154  H          0.00653000       0.41648000       0.36945870
   155  H          0.49347000       0.58352000       0.86945870
   156  H         -0.00653000       0.91648000       0.13054130
   157  C          0.41953000       0.19382000       0.57411130
   158  C          0.91953000       0.30618000       0.42588870
   159  C          0.58047000       0.69382000       0.92588870
   160  C          0.08047000       0.80618000       0.07411130
   161  H          0.47753000       0.18152000       0.54005130
   162  H          0.97753000       0.31848000       0.45994870
   163  H          0.52247000       0.68152000       0.95994870
   164  H          0.02247000       0.81848000       0.04005130
   165  C          0.31592000       0.27057180       0.57139110
   166  C          0.81592000       0.22942820       0.42860890
   167  C          0.68408000       0.77057180       0.92860890
   168  C          0.18408000       0.72942820       0.07139110
   169  H          0.30402000       0.30997180       0.53516110
   170  H          0.80402000       0.19002820       0.46483890
   171  H          0.69598000       0.80997180       0.96483890
   172  H          0.19598000       0.69002820       0.03516110
   173  C          0.22852000       0.28987180       0.62268110
   174  C          0.72852000       0.21012820       0.37731890
   175  C          0.77148000       0.78987180       0.87731890
   176  C          0.27148000       0.71012820       0.12268110
   177  C          0.12192000       0.37495180       0.62099100
   178  C          0.62192000       0.12504820       0.37900900
   179  C          0.87808000       0.87495180       0.87900900
   180  C          0.37808000       0.62504820       0.12099100
   181  C          0.35003000       0.15122000       0.67922120
   182  C          0.85003000       0.34878000       0.32077880
   183  C          0.64997000       0.65122000       0.82077880
   184  C          0.14997000       0.84878000       0.17922120
   185  H          0.36163000       0.11052000       0.71500120
   186  H          0.86163000       0.38948000       0.28499880
   187  H          0.63837000       0.61052000       0.78499880
   188  H          0.13837000       0.88948000       0.21500120
   189  C          0.24572000       0.22900180       0.67654110
   190  C          0.74572000       0.27099820       0.32345890
   191  C          0.75428000       0.72900180       0.82345890
   192  C          0.25428000       0.77099820       0.17654110
   193  H          0.06030000       0.47661500       0.57154000
   194  H          0.56030000       0.02338500       0.42846000
   195  H          0.93970000       0.97661500       0.92846000
   196  H          0.43970000       0.52338500       0.07154000
   197  H          0.11020000       0.29331600       0.72196000
   198  H          0.61020000       0.20668400       0.27804000
   199  H          0.88980000       0.79331600       0.77804000
   200  H          0.38980000       0.70668400       0.22196000
   201  O          0.08474170       0.67305130       0.91879700
   202  O          0.58474170       0.82694870       0.08120300
   203  O          0.91525830       0.17305130       0.58120300
   204  O          0.41525830       0.32694870       0.41879700
   205  O          0.13819170       0.62306140       0.82177800
   206  O          0.63819170       0.87693860       0.17822200
   207  O          0.86180830       0.12306140       0.67822200
   208  O          0.36180830       0.37693860       0.32177800
   209  O          0.90340820       0.56376140       0.98121800
   210  O          0.40340820       0.93623860       0.01878200
   211  O          0.09659180       0.06376140       0.51878200
   212  O          0.59659180       0.43623860       0.48121800
   213  C          0.06842000       0.61157180       0.87404110
   214  C          0.56842000       0.88842820       0.12595890
   215  C          0.93158000       0.11157180       0.62595890
   216  C          0.43158000       0.38842820       0.37404110
   217  C          0.96998000       0.52198180       0.87583110
   218  C          0.46998000       0.97801820       0.12416890
   219  C          0.03002000       0.02198180       0.62416890
   220  C          0.53002000       0.47801820       0.37583110
   221  C          0.95227000       0.45592000       0.82392120
   222  C          0.45227000       0.04408000       0.17607880
   223  C          0.04773000       0.95592000       0.67607880
   224  C          0.54773000       0.54408000       0.32392120
   225  H          0.00563000       0.46772000       0.78834120
   226  H          0.50563000       0.03228000       0.21165880
   227  H         -0.00563000       0.96772000       0.71165880
   228  H          0.49437000       0.53228000       0.28834120
   229  C          0.85677000       0.37362000       0.82510140
   230  C          0.35677000       0.12638000       0.17489860
   231  C          0.14323000       0.87362000       0.67489860
   232  C          0.64323000       0.62638000       0.32510140
   233  H          0.84547000       0.32982000       0.79063140
   234  H          0.34547000       0.17018000       0.20936860
   235  H          0.15453000       0.82982000       0.70936860
   236  H          0.65453000       0.67018000       0.29063140
   237  C          0.77677000       0.35692000       0.87870150
   238  C          0.27677000       0.14308000       0.12129850
   239  C          0.22323000       0.85692000       0.62129850
   240  C          0.72323000       0.64308000       0.37870150
   241  H          0.71197000       0.30152000       0.87964150
   242  H          0.21197000       0.19848000       0.12035850
   243  H          0.28803000       0.80152000       0.62035850
   244  H          0.78803000       0.69848000       0.37964150
   245  C          0.88988000       0.50336190       0.92942110
   246  C          0.38988000      -0.00336190       0.07057890
   247  C          0.11012000       0.00336190       0.57057890
   248  C          0.61012000       0.49663810       0.42942110
   249  C          0.79247000       0.42132000       0.93041130
   250  C          0.29247000       0.07868000       0.06958870
   251  C          0.20753000       0.92132000       0.56958870
   252  C          0.70753000       0.57868000       0.43041130
   253  H          0.73787000       0.40952000       0.96565130
   254  H          0.23787000       0.09048000       0.03434870
   255  H          0.26213000       0.90952000       0.53434870
   256  H          0.76213000       0.59048000       0.46565130
   257  H          0.18230000       0.67911300       0.82266000
   258  H          0.68230000       0.82088700       0.17734000
   259  H          0.81770000       0.17911300       0.67734000
   260  H          0.31770000       0.32088700       0.32266000
   261  H          0.95770000       0.61291500       0.97435000
   262  H          0.45770000       0.88708500       0.02565000
   263  H          0.04230000       0.11291500       0.52565000
   264  H          0.54230000       0.38708500       0.47435000
