data_AQESOE
_symmetry_space_group_name_H-M    'P1'
_symmetry_Int_Tables_number       1
loop_
_symmetry_equiv_pos_site_id
_symmetry_equiv_pos_as_xyz
1 x,y,z
_cell_length_a                   5.63115
_cell_length_b                   8.86598
_cell_length_c                   12.700612
_cell_angle_alpha                104.40311
_cell_angle_beta                 97.51911
_cell_angle_gamma                101.26611
loop_
_atom_site_label
_atom_site_type_symbol
_atom_site_fract_x
_atom_site_fract_y
_atom_site_fract_z
     1  N          0.26967160       0.45966110       0.35469700
     2  N          0.73032840       0.54033890       0.64530300
     3  H          0.39830000       0.52871800       0.39301200
     4  H          0.60170000       0.47128200       0.60698800
     5  C          0.14931180       0.36485110       0.41312800
     6  C          0.85068820       0.63514890       0.58687200
     7  N          0.91448840       0.28360110       0.38246700
     8  N          0.08551160       0.71639890       0.61753300
     9  N          0.88170830       0.20360120       0.45974800
    10  N          0.11829170       0.79639880       0.54025200
    11  N          0.08696170       0.23602110       0.53079800
    12  N          0.91303830       0.76397890       0.46920200
    13  N          0.26362170       0.33932110       0.50334700
    14  N          0.73637830       0.66067890       0.49665300
    15  N          0.11944180       0.52800100       0.29115700
    16  N          0.88055820       0.47199900       0.70884300
    17  H          0.01230000       0.57520000       0.32641400
    18  H         -0.01230000       0.42480000       0.67358600
    19  C          0.01073180       0.42843110       0.18605800
    20  C         -0.01073180       0.57156890       0.81394200
    21  N          0.10685180       0.31612120       0.12908700
    22  N          0.89314820       0.68387880       0.87091300
    23  N          0.94986810       0.25799120       0.03013700
    24  N          0.05013190       0.74200880       0.96986300
    25  N          0.77382820       0.33331120       0.03007700
    26  N          0.22617180       0.66668880       0.96992300
    27  N          0.80454830       0.44300110       0.12972700
    28  N          0.19545170       0.55699890       0.87027300
    29  N          0.77460190       0.81295140       0.16468800
    30  N          0.22539810       0.18704860       0.83531200
    31  H          0.82030000       0.77120000       0.09991500
    32  H          0.17970000       0.22880000       0.90008500
    33  H          0.71930000       0.90020000       0.15361500
    34  H          0.28070000       0.09980000       0.84638500
    35  N          0.55947180       0.69880120       0.17088800
    36  N          0.44052820       0.30119880       0.82911200
    37  H          0.52030000       0.74520000       0.24051400
    38  H          0.47970000       0.25480000       0.75948600
    39  H          0.61230000       0.60720000       0.16861300
    40  H          0.38770000       0.39280000       0.83138700
    41  H          0.43730000       0.68231800       0.11271300
    42  H          0.56270000       0.31768200       0.88728700
    43  N          0.46752000       0.06436120       0.12835800
    44  N          0.53248000       0.93563880       0.87164200
    45  H          0.51830000       0.12920000       0.08811400
    46  H          0.48170000       0.87080000       0.91188600
    47  H          0.31530000       0.00981900       0.09941300
    48  H          0.68470000      -0.00981900       0.90058700
    49  N          0.45285170       0.17122110       0.23233700
    50  N          0.54714830       0.82877890       0.76766300
    51  H          0.60730000       0.22111800       0.26821200
    52  H          0.39270000       0.77888200       0.73178800
    53  H          0.37430000       0.10221900       0.27501400
    54  H          0.62570000       0.89778100       0.72498600
    55  H          0.36530000       0.24271900       0.22071300
    56  H          0.63470000       0.75728100       0.77928700
    57  N          0.26085180       0.95974120       0.34290800
    58  N          0.73914820       0.04025880       0.65709200
    59  H          0.13930000       0.88720000       0.30101400
    60  H          0.86070000       0.11280000       0.69898600
    61  H          0.21430000       0.00320000       0.40821500
    62  H          0.78570000      -0.00320000       0.59178500
    63  N          0.45621170       0.88187110       0.36599700
    64  N          0.54378830       0.11812890       0.63400300
    65  H          0.59130000       0.96261700       0.39831100
    66  H          0.40870000       0.03738300       0.60168900
    67  H          0.42530000       0.83141800       0.41661200
    68  H          0.57470000       0.16858200       0.58338800
