data_AQEZUU
_symmetry_space_group_name_H-M    'P1'
_symmetry_Int_Tables_number       1
loop_
_symmetry_equiv_pos_site_id
_symmetry_equiv_pos_as_xyz
1 x,y,z
_cell_length_a                   8.953614
_cell_length_b                   10.178616
_cell_length_c                   6.967411
_cell_angle_alpha                90.0
_cell_angle_beta                 110.1542
_cell_angle_gamma                90.0
loop_
_atom_site_label
_atom_site_type_symbol
_atom_site_fract_x
_atom_site_fract_y
_atom_site_fract_z
     1  I          0.60596600       0.34399500       0.51218800
     2  I          0.39403400       0.84399500      -0.01218800
     3  I          0.39403400       0.65600500       0.48781200
     4  I          0.60596600       0.15600500       0.01218800
     5  O          0.80707000       0.42676000       0.56531000
     6  O          0.19293000       0.92676000       0.93469000
     7  O          0.19293000       0.57324000       0.43469000
     8  O          0.80707000       0.07324000       0.06531000
     9  H          0.81214000       0.50920000       0.57119000
    10  H          0.18786000       0.00920000       0.92881000
    11  H          0.18786000       0.49080000       0.42881000
    12  H          0.81214000      -0.00920000       0.07119000
    13  O          0.54198000       0.43416000       0.69239000
    14  O          0.45802000       0.93416000       0.80761000
    15  O          0.45802000       0.56584000       0.30761000
    16  O          0.54198000       0.06584000       0.19239000
    17  O          0.69177000       0.20206000       0.65889000
    18  O          0.30823000       0.70206000       0.84111000
    19  O          0.30823000       0.79794000       0.34111000
    20  O          0.69177000       0.29794000       0.15889000
    21  N          0.94029000       0.01327000       0.52191100
    22  N          0.05971000       0.51327000       0.97808900
    23  N          0.05971000      -0.01327000       0.47808900
    24  N          0.94029000       0.48673000       0.02191100
    25  N          0.87048000       0.89557000       0.55061100
    26  N          0.12952000       0.39557000       0.94938900
    27  N          0.12952000       0.10443000       0.44938900
    28  N          0.87048000       0.60443000       0.05061100
    29  N          0.81128000       0.68718000       0.56941200
    30  N          0.18872000       0.18718000       0.93058800
    31  N          0.18872000       0.31282000       0.43058800
    32  N          0.81128000       0.81282000       0.06941200
    33  N          0.68198000       0.77077000       0.56931100
    34  N          0.31802000       0.27077000       0.93068900
    35  N          0.31802000       0.22923000       0.43068900
    36  N          0.68198000       0.72923000       0.06931100
    37  C          0.92201100       0.77018000       0.56261300
    38  C          0.07798900       0.27018000       0.93738700
    39  C          0.07798900       0.22982000       0.43738700
    40  C          0.92201100       0.72982000       0.06261300
    41  H          0.02505100       0.74507500       0.56584100
    42  H          0.97494900       0.24507500       0.93415900
    43  H          0.97494900       0.25492500       0.43415900
    44  H          0.02505100       0.75492500       0.06584100
    45  C          0.71991000       0.89289000       0.55931300
    46  C          0.28009000       0.39289000       0.94068700
    47  C          0.28009000       0.10711000       0.44068700
    48  C          0.71991000       0.60711000       0.05931300
    49  H          0.65512300       0.96689200       0.55814400
    50  H          0.34487700       0.46689200       0.94185600
    51  H          0.34487700       0.03310800       0.44185600
    52  H          0.65512300       0.53310800       0.05814400
