data_AQIBAG
_symmetry_space_group_name_H-M    'P1'
_symmetry_Int_Tables_number       1
loop_
_symmetry_equiv_pos_site_id
_symmetry_equiv_pos_as_xyz
1 x,y,z
_cell_length_a                   8.09611
_cell_length_b                   8.67491
_cell_length_c                   9.007611
_cell_angle_alpha                93.63701
_cell_angle_beta                 107.61301
_cell_angle_gamma                117.05101
loop_
_atom_site_label
_atom_site_type_symbol
_atom_site_fract_x
_atom_site_fract_y
_atom_site_fract_z
     1  I          0.70597500      -0.01921600       0.11513400
     2  I          0.29402500       0.01921600       0.88486600
     3  O          0.82065000       0.03015000       0.96146000
     4  O          0.17935000       0.96985000       0.03854000
     5  H          0.81111000       0.94010000       0.89910000
     6  H          0.18889000       0.05990000       0.10090000
     7  O          0.45655000       0.81774000       0.98276000
     8  O          0.54345000       0.18226000       0.01724000
     9  O          0.79145000       0.83454000       0.20034000
    10  O          0.20855000       0.16546000       0.79966000
    11  O          0.77985000       0.79114000       0.76474000
    12  O          0.22015000       0.20886000       0.23526000
    13  O          0.54405000       0.97414000       0.31614000
    14  O          0.45595000       0.02586000       0.68386000
    15  O          0.07145000       0.31435000       0.48914000
    16  O          0.92855000       0.68565000       0.51086000
    17  O          0.95605000       0.40555000       0.28635000
    18  O          0.04395000       0.59445000       0.71365000
    19  N          0.62066000       0.75765000       0.63035000
    20  N          0.37934000       0.24235000       0.36965000
    21  N          0.50496000       0.84565000       0.40035000
    22  N          0.49504000       0.15435000       0.59965000
    23  N          0.83006000       0.01525000       0.57435000
    24  N          0.16994000      -0.01525000       0.42565000
    25  H          0.92865000       0.03556600       0.66295100
    26  H          0.07135000       0.96443400       0.33704900
    27  H          0.84960200       0.09004800       0.51147200
    28  H          0.15039800       0.90995200       0.48852800
    29  N          0.43666000       0.50855000       0.69955000
    30  N          0.56334000       0.49145000       0.30045000
    31  H          0.54578200       0.53767400       0.78220400
    32  H          0.45421800       0.46232600       0.21779600
    33  H          0.32444000       0.41079200       0.68507600
    34  H          0.67556000       0.58920800       0.31492400
    35  N          0.09546000       0.42685000       0.40685000
    36  N          0.90454000       0.57315000       0.59315000
    37  N          0.18856000       0.69806000       0.21985000
    38  N          0.81144000       0.30194000       0.78015000
    39  H          0.22686200       0.78285900       0.16848400
    40  H          0.77313800       0.21714100       0.83151600
    41  H          0.06410500       0.60977100       0.18171600
    42  H          0.93589500       0.39022900       0.81828400
    43  C          0.65608000       0.87537000       0.53656000
    44  C          0.34392000       0.12463000       0.46344000
    45  C          0.44117000       0.61056000       0.59766000
    46  C          0.55883000       0.38944000       0.40234000
    47  C          0.28357000       0.57966000       0.45176000
    48  C          0.71643000       0.42034000       0.54824000
    49  C          0.31657000       0.70296000       0.35276000
    50  C          0.68343000       0.29704000       0.64724000
    51  O          0.25856000       0.45975000       0.00625000
    52  O          0.74144000       0.54025000      -0.00625000
    53  H          0.33896800       0.56069300      -0.00855000
    54  H          0.66103200       0.43930700       0.00855000
    55  H          0.25549800       0.37952900       0.94068500
    56  H          0.74450200       0.62047100       0.05931500
