data_AQIGOZ
_symmetry_space_group_name_H-M    'P1'
_symmetry_Int_Tables_number       1
loop_
_symmetry_equiv_pos_site_id
_symmetry_equiv_pos_as_xyz
1 x,y,z
_cell_length_a                   9.697715
_cell_length_b                   13.5502
_cell_length_c                   19.3853
_cell_angle_alpha                91.0735
_cell_angle_beta                 93.9055
_cell_angle_gamma                103.4505
loop_
_atom_site_label
_atom_site_type_symbol
_atom_site_fract_x
_atom_site_fract_y
_atom_site_fract_z
     1  Cl         0.57270110       0.36015800       0.38672600
     2  Cl         0.42729890       0.63984200       0.61327400
     3  Cl         0.34262120       0.40761900       0.47482600
     4  Cl         0.65737880       0.59238100       0.52517400
     5  Cl        -0.01322110       0.05245800       0.38478600
     6  Cl         0.01322110       0.94754200       0.61521400
     7  Cl         0.21821110       0.00347800       0.29955600
     8  Cl         0.78178890      -0.00347800       0.70044400
     9  Cl         0.59004120       0.10330900       0.44073500
    10  Cl         0.40995880       0.89669100       0.55926500
    11  Cl         0.68059110       0.90152100       0.44743500
    12  Cl         0.31940890       0.09847900       0.55256500
    13  Cl         0.59894140       0.85345100       0.17006600
    14  Cl         0.40105860       0.14654900       0.82993400
    15  Cl         0.47839130       0.04437900       0.16370500
    16  Cl         0.52160870       0.95562100       0.83629500
    17  Cl         0.81752110       0.22216900       0.29756600
    18  Cl         0.18247890       0.77783100       0.70243400
    19  Cl         0.94416110       0.38042900       0.19318600
    20  Cl         0.05583890       0.61957100       0.80681400
    21  Cl         0.42218110       0.42534900       0.11168600
    22  Cl         0.57781890       0.57465100       0.88831400
    23  Cl         0.28741100       0.25302900       0.20534600
    24  Cl         0.71258900       0.74697100       0.79465400
    25  O          0.67435000       0.25744000       0.62882000
    26  O          0.32565000       0.74256000       0.37118000
    27  O          0.88054000       0.48167000       0.35172000
    28  O          0.11946000       0.51833000       0.64828000
    29  O          0.87004000       0.79873000       0.97714810
    30  O          0.12996000       0.20127000       0.02285190
    31  C          0.49375000       0.16563000       0.29872000
    32  C          0.50625000       0.83437000       0.70128000
    33  C          0.38664000       0.18513000       0.34402000
    34  C          0.61336000       0.81487000       0.65598000
    35  C          0.40894000       0.27603000       0.38372000
    36  C          0.59106000       0.72397000       0.61628000
    37  C          0.30484000       0.29723000       0.42392000
    38  C          0.69516000       0.70277000       0.57608000
    39  C          0.17134000       0.22873000       0.42572000
    40  C          0.82866000       0.77127000       0.57428000
    41  C          0.15024000       0.13793000       0.38712000
    42  C          0.84976000       0.86207000       0.61288000
    43  C          0.25504000       0.11513000       0.34832000
    44  C          0.74496000       0.88487000       0.65168000
    45  C          0.05854000       0.25173000       0.46772000
    46  C          0.94146000       0.74827000       0.53228000
    47  C          0.00225000       0.33524000       0.45322000
    48  C         -0.00225000       0.66476000       0.54678000
    49  H          0.03746600       0.37890500       0.41735400
    50  H          0.96253400       0.62109500       0.58264600
    51  C          0.89385000       0.35464000       0.49132000
    52  C          0.10615000       0.64536000       0.50868000
    53  H          0.85557700       0.41184600       0.48181400
    54  H          0.14442300       0.58815400       0.51818600
    55  C          0.84185000       0.28924000       0.54362000
    56  C          0.15815000       0.71076000       0.45638000
    57  C          0.89825000       0.20624000       0.55752000
    58  C          0.10175000       0.79376000       0.44248000
    59  H          0.86289500       0.16226100       0.59316600
    60  H          0.13710500       0.83773900       0.40683400
    61  C          0.00534000       0.18704000       0.52012000
    62  C         -0.00534000       0.81296000       0.47988000
    63  H          0.04323800       0.12971600       0.52976000
    64  H          0.95676200       0.87028400       0.47024000
    65  C          0.72445000       0.30875000       0.58243000
    66  C          0.27555000       0.69125000       0.41757000
    67  H          0.68610000       0.36493300       0.57003100
    68  H          0.31390000       0.63506700       0.42996900
    69  C          0.54004000       0.06963000       0.30192000
    70  C          0.45996000       0.93037000       0.69808000
    71  C          0.58274000       0.03273000       0.36562000
    72  C          0.41726000       0.96727000       0.63438000
    73  C          0.62974000       0.94327000       0.36792000
    74  C          0.37026000       0.05673000       0.63208000
    75  C          0.64364000       0.88927000       0.30812000
    76  C          0.35636000       0.11073000       0.69188000
    77  C          0.59704000       0.92377000       0.24502000
    78  C          0.40296000       0.07623000       0.75498000
    79  C          0.54494000       0.01053000       0.24222000
    80  C          0.45506000      -0.01053000       0.75778000
    81  C          0.71244000       0.80127000       0.31042000
    82  C          0.28756000       0.19873000       0.68958000
    83  C          0.64745000       0.71047000       0.33932000
    84  C          0.35255000       0.28953000       0.66068000
    85  H          0.55643700       0.70287900       0.35669600
    86  H          0.44356300       0.29712100       0.64330400
    87  C          0.71535000       0.63167000       0.34272000
    88  C          0.28465000       0.36833000       0.65728000
    89  H          0.67060200       0.56965600       0.36229200
    90  H          0.32939800       0.43034400       0.63770800
    91  C          0.84905000       0.64247000       0.31762000
    92  C          0.15095000       0.35753000       0.68238000
    93  C          0.91345000       0.73267000       0.28782000
    94  C          0.08655000       0.26733000       0.71218000
    95  H          0.00384600       0.73991000       0.26989100
    96  H         -0.00384600       0.26009000       0.73010900
    97  C          0.84505000       0.81237000       0.28412000
    98  C          0.15495000       0.18763000       0.71588000
    99  H          0.88866300       0.87401300       0.26378500
   100  H          0.11133700       0.12598700       0.73621500
   101  C          0.92455000       0.55976000       0.32353000
   102  C          0.07545000       0.44024000       0.67647000
   103  H          0.01328800       0.56878800       0.30366400
   104  H         -0.01328800       0.43121200       0.69633600
   105  C          0.55644000       0.24343000       0.25042000
   106  C          0.44356000       0.75657000       0.74958000
   107  C          0.70464000       0.27283000       0.24432000
   108  C          0.29536000       0.72717000       0.75568000
   109  C          0.76194000       0.34663000       0.19882000
   110  C          0.23806000       0.65337000       0.80118000
   111  C          0.67724000       0.39733000       0.15892000
   112  C          0.32276000       0.60267000       0.84108000
   113  C          0.53034000       0.36793000       0.16442000
   114  C          0.46966000       0.63207000       0.83558000
   115  C          0.47074000       0.29233000       0.20782000
   116  C          0.52926000       0.70767000       0.79218000
   117  C          0.73794000       0.48013000       0.11192000
   118  C          0.26206000       0.51987000       0.88808000
   119  C          0.78545000       0.45693000       0.04912000
   120  C          0.21455000       0.54307000       0.95088000
   121  H          0.78357700       0.38843000       0.03658100
   122  H          0.21642300       0.61157000       0.96341900
   123  C          0.83565000       0.53374000       0.00452000
   124  C          0.16435000       0.46626000      -0.00452000
   125  H          0.86874800       0.51795700       0.96157700
   126  H          0.13125200       0.48204300       0.03842300
   127  C          0.83744000       0.63333000       0.02242000
   128  C          0.16256000       0.36667000       0.97758000
   129  C          0.79145000       0.65713000       0.08632000
   130  C          0.20855000       0.34287000       0.91368000
   131  H          0.79364800       0.72554200       0.09894900
   132  H          0.20635200       0.27445800       0.90105100
   133  C          0.74295000       0.58043000       0.13062000
   134  C          0.25705000       0.41957000       0.86938000
   135  H          0.71278800       0.59624100       0.17425600
   136  H          0.28721200       0.40375900       0.82574400
   137  C          0.88145000       0.71284000       0.97177000
   138  C          0.11855000       0.28716000       0.02823000
   139  H          0.92216400       0.69416400       0.93176600
   140  H          0.07783600       0.30583600       0.06823400
   141  Cl         0.47590130       0.22434900       0.00568700
   142  Cl         0.52409870       0.77565100      -0.00568700
   143  Cl         0.77419130       0.17079100       0.02556900
   144  Cl         0.22580870       0.82920900       0.97443100
   145  O          0.23424000       0.04233000       0.98458000
   146  O          0.76576000       0.95767000       0.01542000
   147  C          0.36565000       0.02294000       0.99258000
   148  C          0.63435000       0.97706000       0.00742000
   149  C          0.48955000       0.10044000       0.00232000
   150  C          0.51045000       0.89956000      -0.00232000
   151  C          0.62245000       0.07714000       0.00982000
   152  C          0.37755000       0.92286000       0.99018000
   153  Cl         0.30072000       0.51980140       0.27105110
   154  Cl         0.69928000       0.48019860       0.72894890
   155  Cl         0.19313000       0.63774180       0.16518120
   156  Cl         0.80687000       0.36225820       0.83481880
   157  C          0.33987000       0.62936000       0.22274000
   158  C          0.66013000       0.37064000       0.77726000
   159  H          0.42286200       0.62827600       0.19597200
   160  H          0.57713800       0.37172400       0.80402800
   161  H          0.36509600       0.68985300       0.25450200
   162  H          0.63490400       0.31014700       0.74549800
   163  Cl         0.05830190       0.89356890       0.13979700
   164  Cl         0.94169810       0.10643110       0.86020300
   165  Cl         0.95025840       0.06909120       0.18072800
   166  Cl         0.04974160       0.93090880       0.81927200
   167  C          0.04936000       0.01884000       0.12243000
   168  C          0.95064000       0.98116000       0.87757000
   169  H          0.00575600       0.02043800       0.07483300
   170  H         -0.00575600       0.97956200       0.92516700
   171  H          0.14697800       0.06229600       0.12438300
   172  H          0.85302200       0.93770400       0.87561700
