data_AQUMIL01
_symmetry_space_group_name_H-M    'P1'
_symmetry_Int_Tables_number       1
loop_
_symmetry_equiv_pos_site_id
_symmetry_equiv_pos_as_xyz
1 x,y,z
_cell_length_a                   16.803319
_cell_length_b                   7.26018
_cell_length_c                   9.700611
_cell_angle_alpha                90.0
_cell_angle_beta                 90.0
_cell_angle_gamma                90.0
loop_
_atom_site_label
_atom_site_type_symbol
_atom_site_fract_x
_atom_site_fract_y
_atom_site_fract_z
     1  O          0.01204700       0.25000000       0.00074840
     2  O          0.48795300       0.75000000       0.50074840
     3  O          0.51204700       0.25000000       0.49925160
     4  O          0.98795300       0.75000000      -0.00074840
     5  N          0.90371700       0.40821170       0.07293860
     6  N          0.59628300       0.59178830       0.57293860
     7  N          0.40371700       0.09178830       0.42706140
     8  N          0.09628300       0.90821170       0.92706140
     9  N          0.09628300       0.59178830       0.92706140
    10  N          0.40371700       0.40821170       0.42706140
    11  N          0.59628300       0.90821170       0.57293860
    12  N          0.90371700       0.09178830       0.07293860
    13  C          0.94248900       0.25000000       0.04627820
    14  C          0.55751100       0.75000000       0.54627820
    15  C          0.44248900       0.25000000       0.45372180
    16  C          0.05751100       0.75000000       0.95372180
    17  H          0.85361000       0.40420000       0.09718400
    18  H          0.64639000       0.59580000       0.59718400
    19  H          0.35361000       0.09580000       0.40281600
    20  H          0.14639000       0.90420000       0.90281600
    21  H          0.14639000       0.59580000       0.90281600
    22  H          0.35361000       0.40420000       0.40281600
    23  H          0.64639000       0.90420000       0.59718400
    24  H          0.85361000       0.09580000       0.09718400
    25  H          0.92951000       0.51320000       0.05618300
    26  H          0.57049000       0.48680000       0.55618300
    27  H          0.42951000      -0.01320000       0.44381700
    28  H          0.07049000       0.01320000       0.94381700
    29  H          0.07049000       0.48680000       0.94381700
    30  H          0.42951000       0.51320000       0.44381700
    31  H          0.57049000       0.01320000       0.55618300
    32  H          0.92951000      -0.01320000       0.05618300
    33  O          0.86573900       0.25000000       0.56693850
    34  O          0.63426100       0.75000000       0.06693850
    35  O          0.36573900       0.25000000       0.93306150
    36  O          0.13426100       0.75000000       0.43306150
    37  O          0.73815100       0.25000000       0.62957840
    38  O          0.76184900       0.75000000       0.12957840
    39  O          0.23815100       0.25000000       0.87042160
    40  O          0.26184900       0.75000000       0.37042160
    41  N          0.72747900       0.25000000       0.09997820
    42  N          0.77252100       0.75000000       0.59997820
    43  N          0.22747900       0.25000000       0.40002180
    44  N          0.27252100       0.75000000       0.90002180
    45  C          0.67208100       0.25000000       0.19990810
    46  C          0.82791900       0.75000000       0.69990810
    47  C          0.17208100       0.25000000       0.30009190
    48  C          0.32791900       0.75000000       0.80009190
    49  C          0.69797110       0.25000000       0.34436810
    50  C          0.80202890       0.75000000       0.84436810
    51  C          0.19797110       0.25000000       0.15563190
    52  C          0.30202890       0.75000000       0.65563190
    53  H          0.65790000       0.25000000       0.41050000
    54  H          0.84210000       0.75000000       0.91050000
    55  H          0.15790000       0.25000000       0.08950000
    56  H          0.34210000       0.75000000       0.58950000
    57  C          0.88872000       0.25000000       0.71157000
    58  C          0.61128000       0.75000000       0.21157000
    59  C          0.38872000       0.25000000       0.78843000
    60  C          0.11128000       0.75000000       0.28843000
    61  C          0.70258140       0.25000000       0.96928000
    62  C          0.79741860       0.75000000       0.46928000
    63  C          0.20258140       0.25000000       0.53072000
    64  C          0.29741860       0.75000000       0.03072000
    65  H          0.74080000       0.25000000       0.90000000
    66  H          0.75920000       0.75000000       0.40000000
    67  H          0.24080000       0.25000000       0.60000000
    68  H          0.25920000       0.75000000       0.10000000
    69  C          0.62339150       0.25000000       0.93068000
    70  C          0.87660850       0.75000000       0.43068000
    71  C          0.12339150       0.25000000       0.56932000
    72  C          0.37660850       0.75000000       0.06932000
    73  H          0.60880000       0.25000000       0.83820000
    74  H          0.89120000       0.75000000       0.33820000
    75  H          0.10880000       0.25000000       0.66180000
    76  H          0.39120000       0.75000000       0.16180000
    77  C          0.56718140       0.25000000       0.03247000
    78  C          0.93281860       0.75000000       0.53247000
    79  C          0.06718140       0.25000000       0.46753000
    80  C          0.43281860       0.75000000       0.96753000
    81  H          0.51330000       0.25000000       0.01030000
    82  H          0.98670000       0.75000000       0.51030000
    83  H          0.01330000       0.25000000       0.48970000
    84  H          0.48670000       0.75000000      -0.01030000
    85  C          0.59132120       0.25000000       0.16868000
    86  C          0.90867880       0.75000000       0.66868000
    87  C          0.09132120       0.25000000       0.33132000
    88  C          0.40867880       0.75000000       0.83132000
    89  H          0.55380000       0.25000000       0.23910000
    90  H          0.94620000       0.75000000       0.73910000
    91  H          0.05380000       0.25000000       0.26090000
    92  H          0.44620000       0.75000000       0.76090000
    93  C          0.77161120       0.25000000       0.39108000
    94  C          0.72838880       0.75000000       0.89108000
    95  C          0.27161120       0.25000000       0.10892000
    96  C          0.22838880       0.75000000       0.60892000
    97  C          0.78786120       0.25000000       0.54078000
    98  C          0.71213880       0.75000000       0.04078000
    99  C          0.28786120       0.25000000       0.95922000
   100  C          0.21213880       0.75000000       0.45922000
   101  H          0.81841400       0.25000000       0.33170000
   102  H          0.68158600       0.75000000       0.83170000
   103  H          0.31841400       0.25000000       0.16830000
   104  H          0.18158600       0.75000000       0.66830000
   105  H          0.94520000       0.25000000       0.71560000
   106  H          0.55480000       0.75000000       0.21560000
   107  H          0.44520000       0.25000000       0.78440000
   108  H          0.05480000       0.75000000       0.28440000
   109  H          0.86331500       0.14340000       0.75570000
   110  H          0.63668500       0.85660000       0.25570000
   111  H          0.36331500       0.35660000       0.74430000
   112  H          0.13668500       0.64340000       0.24430000
   113  H          0.13668500       0.85660000       0.24430000
   114  H          0.36331500       0.14340000       0.74430000
   115  H          0.63668500       0.64340000       0.25570000
   116  H          0.86331500       0.35660000       0.75570000
