data_ARAWOI
_symmetry_space_group_name_H-M    'P1'
_symmetry_Int_Tables_number       1
loop_
_symmetry_equiv_pos_site_id
_symmetry_equiv_pos_as_xyz
1 x,y,z
_cell_length_a                   10.8254
_cell_length_b                   11.9254
_cell_length_c                   12.1944
_cell_angle_alpha                71.8571
_cell_angle_beta                 77.0951
_cell_angle_gamma                72.9951
loop_
_atom_site_label
_atom_site_type_symbol
_atom_site_fract_x
_atom_site_fract_y
_atom_site_fract_z
     1  S          0.47134000       0.71584000       0.72803000
     2  S          0.52866000       0.28416000       0.27197000
     3  S          0.20464000       0.26364000       0.36924000
     4  S          0.79536000       0.73636000       0.63076000
     5  C          0.35781300       0.94871300       0.60231200
     6  C          0.64218700       0.05128700       0.39768800
     7  C          0.36071400       0.91271400       0.81471200
     8  C          0.63928600       0.08728600       0.18528800
     9  C          0.32481500      -0.00668600       0.70431300
    10  C          0.67518500       0.00668600       0.29568700
    11  C          0.25481400       0.11341400       0.69751300
    12  C          0.74518600       0.88658600       0.30248700
    13  H          0.23300000       0.14030000       0.76660000
    14  H          0.76700000       0.85970000       0.23340000
    15  C          0.31531400       0.06681400       0.28281300
    16  C          0.68468600       0.93318600       0.71718700
    17  C          0.24991400       0.18451400       0.26581400
    18  C          0.75008600       0.81548600       0.73418600
    19  H          0.22730000       0.22680000       0.19020000
    20  H          0.77270000       0.77320000       0.80980000
    21  C          0.45741400       0.78751400       0.50381300
    22  C          0.54258600       0.21248600       0.49618700
    23  C          0.42271400       0.79451300       0.82731300
    24  C          0.57728600       0.20548700       0.17268700
    25  H          0.44120000       0.75000000       0.90370000
    26  H          0.55880000       0.25000000       0.09630000
    27  C          0.31961300       0.03221300       0.49691200
    28  C          0.68038700       0.96778700       0.50308800
    29  C          0.42521400       0.82821300       0.60281300
    30  C          0.57478600       0.17178700       0.39718700
    31  C          0.32181600       0.96311500       0.92051300
    32  C          0.67818400       0.03688500       0.07948700
    33  H          0.35170000       0.03780000       0.90260000
    34  H          0.64830000       0.96220000       0.09740000
    35  H          0.36190000       0.90300000       0.98620000
    36  H          0.63810000       0.09700000       0.01380000
    37  H          0.22660000       0.98130000       0.94110000
    38  H          0.77340000       0.01870000       0.05890000
    39  C          0.42231400       0.86751300       0.40091300
    40  C          0.57768600       0.13248700       0.59908700
    41  H          0.44710000       0.83910000       0.33260000
    42  H          0.55290000       0.16090000       0.66740000
    43  C          0.25121500       0.15501400       0.49381300
    44  C          0.74878500       0.84498600       0.50618700
    45  C          0.35171400       0.98921400       0.39051300
    46  C          0.64828600       0.01078600       0.60948700
    47  C          0.53151600       0.65361400       0.50831500
    48  C          0.46848400       0.34638600       0.49168500
    49  H          0.60510000       0.63050000       0.55180000
    50  H          0.39490000       0.36950000       0.44820000
    51  H          0.56430000       0.64550000       0.42880000
    52  H          0.43570000       0.35450000       0.57120000
    53  H          0.47200000       0.60020000       0.54720000
    54  H          0.52800000       0.39980000       0.45280000
    55  C          0.21571500       0.19461400       0.59671300
    56  C          0.78428500       0.80538600       0.40328700
    57  C          0.34321700       0.01481600       0.17651400
    58  C          0.65678300       0.98518400       0.82348600
    59  H          0.30100000       0.94750000       0.19530000
    60  H          0.69900000       0.05250000       0.80470000
    61  H          0.43770000       0.98530000       0.15660000
    62  H          0.56230000       0.01470000       0.84340000
    63  H          0.30880000       0.07870000       0.11010000
    64  H          0.69120000       0.92130000       0.88990000
    65  C          0.13411600       0.32211500       0.59271500
    66  C          0.86588400       0.67788500       0.40728500
    67  H          0.12300000       0.33740000       0.66920000
    68  H          0.87700000       0.66260000       0.33080000
    69  H          0.04830000       0.33090000       0.57270000
    70  H          0.95170000       0.66910000       0.42730000
    71  H          0.17800000       0.38070000       0.53360000
    72  H          0.82200000       0.61930000       0.46640000
    73  S          0.89484000       0.24164000       0.27004000
    74  S          0.10516000       0.75836000       0.72996000
    75  C          0.03911300       0.90718700       0.64911200
    76  C          0.96088700       0.09281300       0.35088800
    77  C          0.83921500       0.27361400       0.49061400
    78  C          0.16078500       0.72638600       0.50938600
    79  C          0.92621500       0.11121400       0.65641300
    80  C          0.07378500       0.88878600       0.34358700
    81  H          0.89310000       0.16920000       0.70090000
    82  H          0.10690000       0.83080000       0.29910000
    83  C          0.77031700       0.35511500       0.57231500
    84  C          0.22968300       0.64488500       0.42768500
    85  H          0.83480000       0.36570000       0.61090000
    86  H          0.16520000       0.63430000       0.38910000
    87  H          0.70620000       0.31720000       0.63130000
    88  H          0.29380000       0.68280000       0.36870000
    89  H          0.72570000       0.43450000       0.52710000
    90  H          0.27430000       0.56550000       0.47290000
    91  C          0.98591400      -0.00531400       0.71241300
    92  C          0.01408600       0.00531400       0.28758700
    93  C          0.82891500       0.31651400       0.37811400
    94  C          0.17108500       0.68348600       0.62188600
    95  H          0.77950000       0.39780000       0.35410000
    96  H          0.22050000       0.60220000       0.64590000
    97  C         -0.00358400       0.95888400       0.84191300
    98  C          0.00358400       0.04111600       0.15808700
    99  H          0.93000000       0.91450000       0.88630000
   100  H          0.07000000       0.08550000       0.11370000
   101  H          0.98270000       0.03230000       0.86770000
   102  H          0.01730000       0.96770000       0.13230000
   103  H          0.08340000       0.90700000       0.85510000
   104  H          0.91660000       0.09300000       0.14490000
   105  C          0.03181300       0.93758700       0.52851300
   106  C          0.96818700       0.06241300       0.47148700
   107  C          0.91141400       0.14911300       0.54151300
   108  C          0.08858600       0.85088700       0.45848700
   109  F          0.54091200       0.57961000       0.07599000
   110  F          0.45908800       0.42039000       0.92401000
   111  F          0.67501200       0.69491100       0.20519000
   112  F          0.32498800       0.30508900       0.79481000
   113  P          0.60845000       0.63714000       0.13964000
   114  P          0.39155000       0.36286000       0.86036000
   115  F          0.54831200       0.56441000       0.26279000
   116  F          0.45168800       0.43559000       0.73721000
   117  F          0.73141100       0.52581100       0.14051000
   118  F          0.26858900       0.47418900       0.85949000
   119  F          0.66781500       0.70781200       0.02011000
   120  F          0.33218500       0.29218800       0.97989000
   121  F          0.48221500       0.74721300       0.14311300
   122  F          0.51778500       0.25278700       0.85688700
   123  O          0.06201600       0.73211400       0.11611500
   124  O          0.93798400       0.26788600       0.88388500
   125  C          0.07920000       0.52741700       0.13441900
   126  C          0.92080000       0.47258300       0.86558100
   127  H          0.08730000       0.47310000       0.08460000
   128  H          0.91270000       0.52690000       0.91540000
   129  H          0.03450000       0.49360000       0.21320000
   130  H          0.96550000       0.50640000       0.78680000
   131  C          0.19720000       0.68120000       0.09220000
   132  C          0.80280000       0.31880000       0.90780000
   133  H          0.24750000       0.71330000       0.12790000
   134  H          0.75250000       0.28670000       0.87210000
   135  H          0.22620000       0.70120000       0.00630000
   136  H          0.77380000       0.29880000      -0.00630000
   137  C          0.00620000       0.65291800       0.08241800
   138  C         -0.00620000       0.34708200       0.91758200
   139  H          0.01800000       0.66990000      -0.00360000
   140  H          0.98200000       0.33010000       0.00360000
   141  H          0.91210000       0.66450000       0.11270000
   142  H          0.08790000       0.33550000       0.88730000
   143  C          0.22020000       0.54471800       0.14051900
   144  C          0.77980000       0.45528200       0.85948100
   145  H          0.23960000       0.51830000       0.22160000
   146  H          0.76040000       0.48170000       0.77840000
   147  H          0.29150000       0.50070000       0.09150000
   148  H          0.70850000       0.49930000       0.90850000
