data_AREBOP
_symmetry_space_group_name_H-M    'P1'
_symmetry_Int_Tables_number       1
loop_
_symmetry_equiv_pos_site_id
_symmetry_equiv_pos_as_xyz
1 x,y,z
_cell_length_a                   7.24036
_cell_length_b                   8.54358
_cell_length_c                   8.98657
_cell_angle_alpha                68.7226
_cell_angle_beta                 79.4516
_cell_angle_gamma                81.8527
loop_
_atom_site_label
_atom_site_type_symbol
_atom_site_fract_x
_atom_site_fract_y
_atom_site_fract_z
     1  Cl         0.74554180       0.53372000       0.00214170
     2  O          0.87219000       0.62851000       0.02519000
     3  O          0.56218000       0.60761100      -0.00189000
     4  O          0.74201300       0.37781100       0.14079000
     5  O          0.80807000       0.48537000       0.86374000
     6  O          0.54995000       0.06645000       0.51535000
     7  O          0.77906000       0.93146000       0.40926000
     8  O          0.81537000       0.00258000       0.60667000
     9  N          0.71786000      -0.00074000       0.51156000
    10  N          0.46066000       0.06776000       0.19646000
    11  H          0.50120000       0.06870000       0.28020000
    12  N          0.46866000       0.09496000       0.84314000
    13  H          0.49470000       0.07200000       0.75570000
    14  C          0.19099000       0.21978000       0.28598000
    15  H          0.11100000       0.13710000       0.36210000
    16  H          0.11500000       0.31990000       0.23420000
    17  H          0.27700000       0.24630000       0.34110000
    18  C          0.29777000       0.15206000       0.16386000
    19  C          0.22017000       0.17466000       0.02486000
    20  H          0.09530000       0.21960000       0.02790000
    21  C          0.29117000       0.14386000       0.88614000
    22  C          0.16158000       0.16749000       0.76352000
    23  H          0.23180000       0.20240000       0.65710000
    24  H          0.06140000       0.25200000       0.77120000
    25  H          0.10930000       0.06290000       0.78490000
    26  C          0.62048000       0.07749000       0.93292000
    27  H          0.64560000       0.18830000       0.92680000
    28  H          0.73330000       0.02890000       0.88360000
    29  C          0.57979000       0.97161000       0.10258000
    30  H          0.69690000       0.92920000       0.14660000
    31  H          0.51570000       0.87590000       0.11070000
    32  N          0.13726000       0.74726000       0.50136000
    33  H          0.02520000       0.78960000       0.48260000
    34  N          0.47417000       0.56277000       0.67796000
    35  H          0.56090000       0.54530000       0.73720000
    36  C          0.14808000       0.69708000       0.25587000
    37  H          0.09290000       0.59570000       0.27060000
    38  H          0.24360000       0.72050000       0.16290000
    39  H          0.05220000       0.78920000       0.24000000
    40  C          0.23537000       0.67456000       0.40376000
    41  C          0.40946000       0.58616000       0.41896000
    42  H          0.46030000       0.54910000       0.33340000
    43  C          0.52326000       0.54216000       0.54066000
    44  C          0.71697000       0.45998000       0.51138000
    45  H          0.80010000       0.48770000       0.56810000
    46  H          0.76260000       0.49950000       0.39780000
    47  H          0.71180000       0.33990000       0.54910000
    48  C          0.28401100       0.61301200       0.74179000
    49  H          0.20430000       0.52270000       0.76390000
    50  H          0.28820000       0.62730000       0.84330000
    51  C          0.20151200       0.76241200       0.63871000
    52  H          0.29260000       0.84650000       0.59920000
    53  H          0.09490000       0.80340000       0.70110000
