data_AREJOZ
_symmetry_space_group_name_H-M    'P1'
_symmetry_Int_Tables_number       1
loop_
_symmetry_equiv_pos_site_id
_symmetry_equiv_pos_as_xyz
1 x,y,z
_cell_length_a                   8.93943
_cell_length_b                   15.53974
_cell_length_c                   9.57473
_cell_angle_alpha                90.0
_cell_angle_beta                 107.3394
_cell_angle_gamma                90.0
loop_
_atom_site_label
_atom_site_type_symbol
_atom_site_fract_x
_atom_site_fract_y
_atom_site_fract_z
     1  I          0.27849300       0.56753200       0.39474300
     2  I          0.22150700       0.06753200       0.10525700
     3  I          0.72150700       0.43246800       0.60525700
     4  I          0.77849300       0.93246800       0.89474300
     5  Cl         0.30801140       0.70432800       0.27073140
     6  Cl         0.19198860       0.20432800       0.22926860
     7  Cl         0.69198860       0.29567200       0.72926860
     8  Cl         0.80801140       0.79567200       0.77073140
     9  Cl         0.24982150       0.42663700       0.51266140
    10  Cl         0.25017850       0.92663700      -0.01266140
    11  Cl         0.75017850       0.57336300       0.48733860
    12  Cl         0.74982150       0.07336300       0.01266140
    13  C          0.30675000       0.63413000       0.60015000
    14  C          0.19325000       0.13413000       0.89985000
    15  C          0.69325000       0.36587000       0.39985000
    16  C          0.80675000       0.86587000       0.10015000
    17  C          0.45585000       0.64803000       0.69265000
    18  C          0.04415000       0.14803000       0.80735000
    19  C          0.54415000       0.35197000       0.30735000
    20  C          0.95585000       0.85197000       0.19265000
    21  H          0.54514700       0.63125700       0.66497300
    22  H          0.95485300       0.13125700       0.83502700
    23  H          0.45485300       0.36874300       0.33502700
    24  H          0.04514700       0.86874300       0.16497300
    25  C          0.47286000       0.68703000       0.82676000
    26  C          0.02714000       0.18703000       0.67324000
    27  C          0.52714000       0.31297000       0.17324000
    28  C          0.97286000       0.81297000       0.32676000
    29  H          0.57450400       0.69656900       0.89223700
    30  H          0.92549600       0.19656900       0.60776300
    31  H          0.42549600       0.30343100       0.10776300
    32  H          0.07450400       0.80343100       0.39223700
    33  C          0.17406000       0.65853000       0.63596000
    34  C          0.32594000       0.15853000       0.86404000
    35  C          0.82594000       0.34147000       0.36404000
    36  C          0.67406000       0.84147000       0.13596000
    37  H          0.07247000       0.64793800       0.57067800
    38  H          0.42753000       0.14793800       0.92932200
    39  H          0.92753000       0.35206200       0.42932200
    40  H          0.57247000       0.85206200       0.07067800
    41  C          0.34186000       0.71213000       0.86566000
    42  C          0.15814000       0.21213000       0.63434000
    43  C          0.65814000       0.28787000       0.13434000
    44  C          0.84186000       0.78787000       0.36566000
    45  H          0.35345900       0.73855800       0.95770000
    46  H          0.14654100       0.23855800       0.54230000
    47  H          0.64654100       0.26144200       0.04230000
    48  H          0.85345900       0.76144200       0.45770000
    49  C          0.19256000       0.69843000       0.76866000
    50  C          0.30744000       0.19843000       0.73134000
    51  C          0.80744000       0.30157000       0.23134000
    52  C          0.69256000       0.80157000       0.26866000
    53  H          0.10282000       0.71680700       0.79427700
    54  H          0.39718000       0.21680700       0.70572300
    55  H          0.89718000       0.28319300       0.20572300
    56  H          0.60282000       0.78319300       0.29427700
    57  N          0.23145000       0.48393000       0.13204000
    58  N          0.26855000       0.98393000       0.36796000
    59  N          0.76855000       0.51607000       0.86796000
    60  N          0.73145000       0.01607000       0.63204000
    61  C          0.12896000       0.41873000       0.09575000
    62  C          0.37104000       0.91873000       0.40425000
    63  C          0.87104000       0.58127000       0.90425000
    64  C          0.62896000       0.08127000       0.59575000
    65  H          0.08006600       0.39953200       0.16559300
    66  H          0.41993400       0.89953200       0.33440700
    67  H          0.91993400       0.60046800       0.83440700
    68  H          0.58006600       0.10046800       0.66559300
    69  C          0.09126000       0.37843000       0.96164000
    70  C          0.40874000       0.87843000       0.53836000
    71  C          0.90874000       0.62157000       0.03836000
    72  C          0.59126000       0.12157000       0.46164000
    73  H          0.01861100       0.33202200       0.94008500
    74  H          0.48138900       0.83202200       0.55991500
    75  H         -0.01861100       0.66797800       0.05991500
    76  H          0.51861100       0.16797800       0.44008500
    77  C          0.29896000       0.51053000       0.03166000
    78  C          0.20104000       0.01053000       0.46834000
    79  C          0.70104000       0.48947000       0.96834000
    80  C          0.79896000       0.98947000       0.53166000
    81  H          0.37171500       0.55669200       0.05617800
    82  H          0.12828500       0.05669200       0.44382200
    83  H          0.62828500       0.44330800       0.94382200
    84  H          0.87171500       0.94330800       0.55617800
    85  C          0.16106000       0.40653000       0.85924000
    86  C          0.33894000       0.90653000       0.64076000
    87  C          0.83894000       0.59347000       0.14076000
    88  C          0.66106000       0.09347000       0.35924000
    89  H          0.13663900       0.38005400       0.76572400
    90  H          0.36336100       0.88005400       0.73427600
    91  H          0.86336100       0.61994600       0.23427600
    92  H          0.63663900       0.11994600       0.26572400
    93  C          0.26766000       0.47423000       0.89524000
    94  C          0.23234000       0.97423000       0.60476000
    95  C          0.73234000       0.52577000       0.10476000
    96  C          0.76766000       0.02577000       0.39524000
    97  H          0.31755000       0.49481000       0.82705100
    98  H          0.18245000      -0.00519000       0.67294900
    99  H          0.68245000       0.50519000       0.17294900
   100  H          0.81755000       0.00519000       0.32705100
