data_ARURUC
_symmetry_space_group_name_H-M    'P1'
_symmetry_Int_Tables_number       1
loop_
_symmetry_equiv_pos_site_id
_symmetry_equiv_pos_as_xyz
1 x,y,z
_cell_length_a                   5.127512
_cell_length_b                   8.8282
_cell_length_c                   10.8683
_cell_angle_alpha                75.802
_cell_angle_beta                 83.172
_cell_angle_gamma                89.962
loop_
_atom_site_label
_atom_site_type_symbol
_atom_site_fract_x
_atom_site_fract_y
_atom_site_fract_z
     1  I          0.08424200       0.58525200       0.20227200
     2  I          0.91575800       0.41474800       0.79772800
     3  F          0.78418850       0.73892700      -0.00145700
     4  F          0.21581150       0.26107300       0.00145700
     5  F          0.68099870       0.81834800       0.17157700
     6  F          0.31900130       0.18165200       0.82842300
     7  F          0.15516110       0.96851600       0.13910500
     8  F          0.84483890       0.03148400       0.86089500
     9  F          0.26843110       0.88902700       0.96560500
    10  F          0.73156890       0.11097300       0.03439500
    11  C          0.88363840       0.77973100       0.09530800
    12  C          0.11636160       0.22026900       0.90469200
    13  C          0.06435140       0.92723900       0.04006600
    14  C          0.93564860       0.07276100       0.95993400
    15  N          0.35856150       0.34698800       0.33616700
    16  N          0.64143850       0.65301200       0.66383300
    17  C          0.57327170       0.24104100       0.52140800
    18  C          0.42672830       0.75895900       0.47859200
    19  H          0.59000000       0.23790000       0.60810000
    20  H          0.41000000       0.76210000       0.39190000
    21  C          0.39054180       0.33577100       0.45819800
    22  C          0.60945820       0.66422900       0.54180200
    23  H          0.28230000       0.39590000       0.50410000
    24  H          0.71770000       0.60410000       0.49590000
    25  C          0.51094190       0.26061110       0.27383800
    26  C          0.48905810       0.73938890       0.72616200
    27  H          0.49110000       0.26770000       0.18680000
    28  H          0.50890000       0.73230000       0.81320000
    29  C          0.69634190       0.16128100       0.32934800
    30  C          0.30365810       0.83871900       0.67065200
    31  H          0.79840000       0.10080000       0.28130000
    32  H          0.20160000       0.89920000       0.71870000
    33  C          0.73228150       0.15049800       0.45644700
    34  C          0.26771850       0.84950200       0.54355300
    35  C          0.92271170       0.04932900       0.52404700
    36  C          0.07728830       0.95067100       0.47595300
    37  H          0.93770000       0.05420000       0.60930000
    38  H          0.06230000       0.94580000       0.39070000
