data_ARUREM
_symmetry_space_group_name_H-M    'P1'
_symmetry_Int_Tables_number       1
loop_
_symmetry_equiv_pos_site_id
_symmetry_equiv_pos_as_xyz
1 x,y,z
_cell_length_a                   5.489812
_cell_length_b                   7.316616
_cell_length_c                   17.6604
_cell_angle_alpha                93.882
_cell_angle_beta                 95.472
_cell_angle_gamma                107.332
loop_
_atom_site_label
_atom_site_type_symbol
_atom_site_fract_x
_atom_site_fract_y
_atom_site_fract_z
     1  I          0.68406400       0.15289600       0.18757018
     2  I          0.31593600       0.84710400       0.81242982
     3  F          0.48531000       0.47103000       0.21332000
     4  F          0.51469000       0.52897000       0.78668000
     5  C          0.57268900       0.35812000       0.25843000
     6  C          0.42731100       0.64188000       0.74157000
     7  F          0.37732000       0.26743000       0.29633000
     8  F          0.62268000       0.73257000       0.70367000
     9  C          0.79191000       0.48673000       0.31672000
    10  C          0.20809000       0.51327000       0.68328000
    11  F          0.87752000       0.37215000       0.36073190
    12  F          0.12248000       0.62785000       0.63926810
    13  F         -0.01586000       0.57395000       0.28016180
    14  F          0.01586000       0.42605000       0.71983820
    15  C          0.72571000       0.63823000       0.36953000
    16  C          0.27429000       0.36177000       0.63047000
    17  F          0.55962000       0.54764000       0.41353000
    18  F          0.44038000       0.45236000       0.58647000
    19  F          0.60601000       0.73354000       0.32562000
    20  F          0.39399000       0.26646000       0.67438000
    21  C          0.95051000       0.78493000       0.41843000
    22  C          0.04949000       0.21507000       0.58157000
    23  F          0.09109000       0.89434000       0.37132000
    24  F          0.90891000       0.10566000       0.62868000
    25  F          0.10738000       0.70034000       0.45023000
    26  F          0.89262000       0.29966000       0.54977000
    27  C          0.88841000       0.91894000       0.47833000
    28  C          0.11159000       0.08106000       0.52167000
    29  F          0.71314000      -0.00865000       0.44742000
    30  F          0.28686000       0.00865000       0.55258000
    31  F          0.77611000       0.80725000       0.53012000
    32  F          0.22389000       0.19275000       0.46988000
    33  C          0.94868800       0.34738000       0.90637000
    34  C          0.05131200       0.65262000       0.09363000
    35  H          0.83750000       0.39790000       0.87780000
    36  H          0.16250000       0.60210000       0.12220000
    37  C          0.02411300       0.20159000       0.87347000
    38  C         -0.02411300       0.79841000       0.12653000
    39  H          0.95710000       0.15410000       0.82320000
    40  H          0.04290000       0.84590000       0.17680000
    41  N          0.18601000       0.12406000       0.90877000
    42  N          0.81399000       0.87594000       0.09123000
    43  C          0.26601400       0.18861000       0.98146000
    44  C          0.73398600       0.81139000       0.01854000
    45  H          0.36900000       0.12940000       0.00900000
    46  H          0.63100000       0.87060000       0.99100000
    47  C          0.20671400       0.33769000       0.01913000
    48  C          0.79328600       0.66231000       0.98087000
    49  H          0.27940000       0.38340000       0.06910000
    50  H          0.72060000       0.61660000       0.93090000
    51  C          0.03539000       0.42006000       0.98118000
    52  C         -0.03539000       0.57994000       0.01882000
