data_ARUSEN
_symmetry_space_group_name_H-M    'P1'
_symmetry_Int_Tables_number       1
loop_
_symmetry_equiv_pos_site_id
_symmetry_equiv_pos_as_xyz
1 x,y,z
_cell_length_a                   5.66235
_cell_length_b                   8.46119
_cell_length_c                   8.97461
_cell_angle_alpha                78.3678
_cell_angle_beta                 71.7777
_cell_angle_gamma                77.4387
loop_
_atom_site_label
_atom_site_type_symbol
_atom_site_fract_x
_atom_site_fract_y
_atom_site_fract_z
     1  I          0.37554200       0.14139200       0.74666200
     2  I          0.62445800       0.85860800       0.25333800
     3  C          0.39152000      -0.00907150       0.97020140
     4  C          0.60848000       0.00907150       0.02979860
     5  F          0.17297150       0.02888120       0.08228100
     6  F          0.82702850       0.97111880       0.91771900
     7  F          0.41490170       0.83152900       0.95538100
     8  F          0.58509830       0.16847100       0.04461900
     9  N          0.25182000       0.31113150       0.46793130
    10  N          0.74818000       0.68886850       0.53206870
    11  C          0.23972000       0.48604160       0.22200150
    12  C          0.76028000       0.51395840       0.77799850
    13  H          0.30440000       0.58230000       0.14420000
    14  H          0.69560000       0.41770000       0.85580000
    15  C          0.32672000       0.43466170       0.35522150
    16  C          0.67328000       0.56533830       0.64477850
    17  H          0.43340000       0.48930000       0.37220000
    18  H          0.56660000       0.51070000       0.62780000
    19  C          0.07872000       0.23636180       0.44999150
    20  C          0.92128000       0.76363820       0.55000850
    21  H          0.02540000       0.15030000       0.53030000
    22  H          0.97460000       0.84970000       0.46970000
    23  C          0.98058000       0.27776170       0.32098150
    24  C          0.01942000       0.72223830       0.67901850
    25  H          0.85460000       0.22030000       0.31630000
    26  H          0.14540000       0.77970000       0.68370000
    27  C          0.06292000       0.40410150       0.20160130
    28  C          0.93708000       0.59589850       0.79839870
    29  C          0.96698000       0.44257160       0.06193140
    30  C          0.03302000       0.55742840       0.93806860
    31  H          0.84260000       0.37530000       0.06220000
    32  H          0.15740000       0.62470000       0.93780000
