data_ASAKOU
_symmetry_space_group_name_H-M    'P1'
_symmetry_Int_Tables_number       1
loop_
_symmetry_equiv_pos_site_id
_symmetry_equiv_pos_as_xyz
1 x,y,z
_cell_length_a                   6.4461
_cell_length_b                   7.1421
_cell_length_c                   9.7512
_cell_angle_alpha                74.462
_cell_angle_beta                 71.532
_cell_angle_gamma                85.972
loop_
_atom_site_label
_atom_site_type_symbol
_atom_site_fract_x
_atom_site_fract_y
_atom_site_fract_z
     1  F          0.27302000       0.20752000       0.27443170
     2  F          0.72698000       0.79248000       0.72556830
     3  C          0.43924000       0.12264000       0.32333000
     4  C          0.56076000       0.87736000       0.67667000
     5  F          0.65922000       0.18232000       0.07168170
     6  F          0.34078000       0.81768000       0.92831830
     7  C          0.63554000       0.11114000       0.21763000
     8  C          0.36446000       0.88886000       0.78237000
     9  F          0.00312000       0.01102000       0.15594180
    10  F         -0.00312000      -0.01102000       0.84405820
    11  C          0.81294000       0.02044000       0.26163000
    12  C          0.18706000       0.97956000       0.73837000
    13  F          0.96312000       0.85098000       0.44507180
    14  F          0.03688000       0.14902000       0.55492820
    15  C          0.78994000       0.94186000       0.40863000
    16  C          0.21006000       0.05814000       0.59137000
    17  C          0.40924000       0.04734000       0.47693000
    18  C          0.59076000       0.95266000       0.52307000
    19  C          0.46684000       0.64204000       0.25643000
    20  C          0.53316000       0.35796000       0.74357000
    21  H          0.34550000       0.68650000       0.22740000
    22  H          0.65450000       0.31350000       0.77260000
    23  C          0.67125000       0.64594000       0.14313000
    24  C          0.32875000       0.35406000       0.85687000
    25  H          0.66450000       0.69950000       0.03640000
    26  H          0.33550000       0.30050000       0.96360000
    27  C          0.85814000       0.57524000       0.17833000
    28  C          0.14186000       0.42476000       0.82167000
    29  H         -0.00250000       0.58150000       0.09540000
    30  H          0.00250000       0.41850000       0.90460000
    31  C          0.85894000       0.49374000       0.32723000
    32  C          0.14106000       0.50626000       0.67277000
    33  H         -0.01250000       0.45040000       0.34830000
    34  H          0.01250000       0.54960000       0.65170000
    35  C          0.65954000       0.48954000       0.43563000
    36  C          0.34046000       0.51046000       0.56437000
    37  C          0.46754000       0.56354000       0.39943000
    38  C          0.53246000       0.43646000       0.60057000
    39  H          0.98650000       0.44960000       0.34770000
