data_ASAVUL
_symmetry_space_group_name_H-M    'P1'
_symmetry_Int_Tables_number       1
loop_
_symmetry_equiv_pos_site_id
_symmetry_equiv_pos_as_xyz
1 x,y,z
_cell_length_a                   7.2658
_cell_length_b                   12.2736
_cell_length_c                   13.4356
_cell_angle_alpha                90.0
_cell_angle_beta                 105.225
_cell_angle_gamma                90.0
loop_
_atom_site_label
_atom_site_type_symbol
_atom_site_fract_x
_atom_site_fract_y
_atom_site_fract_z
     1  Cl         0.67568000       0.08327700       0.22302600
     2  Cl         0.82432000       0.58327700       0.27697400
     3  Cl         0.32432000       0.91672300       0.77697400
     4  Cl         0.17568000       0.41672300       0.72302600
     5  N          0.36335000       0.65978000       0.12092000
     6  N          0.13665000       0.15978000       0.37908000
     7  N          0.63665000       0.34022000       0.87908000
     8  N          0.86335000       0.84022000       0.62092000
     9  N          0.70584000       0.85117000       0.35442000
    10  N          0.79416000       0.35117000       0.14558000
    11  N          0.29416000       0.14883000       0.64558000
    12  N          0.20584000       0.64883000       0.85442000
    13  C          0.43655000       0.74257000       0.13862000
    14  C          0.06345000       0.24257000       0.36138000
    15  C          0.56345000       0.25743000       0.86138000
    16  C          0.93655000       0.75743000       0.63862000
    17  C          0.62615000       0.85437000       0.26862000
    18  C          0.87385000       0.35437000       0.23138000
    19  C          0.37385000       0.14563000       0.73138000
    20  C          0.12615000       0.64563000       0.76862000
    21  C          0.52536000       0.84588000       0.16352000
    22  C          0.97464000       0.34588000       0.33648000
    23  C          0.47464000       0.15412000       0.83648000
    24  C          0.02536000       0.65412000       0.66352000
    25  C          0.51396000       0.92428000       0.08472000
    26  C         -0.01396000       0.42428000       0.41528000
    27  C          0.48604000       0.07572000       0.91528000
    28  C          0.01396000       0.57572000       0.58472000
    29  C          0.58236000       0.03382000       0.09942000
    30  C          0.91764000       0.53382000       0.40058000
    31  C          0.41764000       0.96618000       0.90058000
    32  C          0.08236000       0.46618000       0.59942000
    33  C          0.57026000       0.10432000       0.01992000
    34  C          0.92974000       0.60432000       0.48008000
    35  C          0.42974000       0.89568000       0.98008000
    36  C          0.07026000       0.39568000       0.51992000
    37  H          0.61890000       0.17720000       0.03370000
    38  H          0.88110000       0.67720000       0.46630000
    39  H          0.38110000       0.82280000       0.96630000
    40  H          0.11890000       0.32280000       0.53370000
    41  S          0.36459000       0.59986300       0.36807400
    42  S          0.13541000       0.09986300       0.13192600
    43  S          0.63541000       0.40013700       0.63192600
    44  S          0.86459000       0.90013700       0.86807400
    45  S          0.48599000       0.64541300       0.58982400
    46  S          0.01401000       0.14541300       0.91017600
    47  S          0.51401000       0.35458700       0.41017600
    48  S         -0.01401000       0.85458700       0.08982400
    49  O          0.22756000       0.80008000       0.33558000
    50  O          0.27244000       0.30008000       0.16442000
    51  O          0.77244000       0.19992000       0.66442000
    52  O          0.72756000       0.69992000       0.83558000
    53  O          0.34726000       0.84498000       0.55368000
    54  O          0.15274000       0.34498000       0.94632000
    55  O          0.65274000       0.15502000       0.44632000
    56  O          0.84726000       0.65502000       0.05368000
    57  C          0.46726000       0.55358000       0.49088000
    58  C          0.03274000       0.05358000       0.00912000
    59  C          0.53274000       0.44642000       0.50912000
    60  C          0.96726000       0.94642000      -0.00912000
    61  C          0.31646000       0.72838000       0.40798000
    62  C          0.18354000       0.22838000       0.09202000
    63  C          0.68354000       0.27162000       0.59202000
    64  C          0.81646000       0.77162000       0.90798000
    65  C          0.37356000       0.74958000       0.50958000
    66  C          0.12644000       0.24958000      -0.00958000
    67  C          0.62644000       0.25042000       0.49042000
    68  C          0.87356000       0.75042000       0.00958000
    69  C          0.21972000       0.90667000       0.37767000
    70  C          0.28028000       0.40667000       0.12233000
    71  C          0.78028000       0.09333000       0.62233000
    72  C          0.71972000       0.59333000       0.87767000
    73  C          0.21729000       0.91377000       0.48007000
    74  C          0.28271000       0.41377000       0.01993000
    75  C          0.78271000       0.08623000       0.51993000
    76  C          0.71729000       0.58623000       0.98007000
    77  H          0.33430000       0.94540000       0.37130000
    78  H          0.16570000       0.44540000       0.12870000
    79  H          0.66570000       0.05460000       0.62870000
    80  H          0.83430000       0.55460000       0.87130000
    81  H          0.11330000       0.94420000       0.33450000
    82  H          0.38670000       0.44420000       0.16550000
    83  H          0.88670000       0.05580000       0.66550000
    84  H          0.61330000       0.55580000       0.83450000
    85  H          0.08720000       0.89510000       0.48200000
    86  H          0.41280000       0.39510000       0.01800000
    87  H          0.91280000       0.10490000       0.51800000
    88  H          0.58720000       0.60490000       0.98200000
    89  H          0.23710000       0.98810000       0.50220000
    90  H          0.26290000       0.48810000      -0.00220000
    91  H          0.76290000       0.01190000       0.49780000
    92  H          0.73710000       0.51190000       0.00220000
