data_ASAVIZ
_symmetry_space_group_name_H-M    'P1'
_symmetry_Int_Tables_number       1
loop_
_symmetry_equiv_pos_site_id
_symmetry_equiv_pos_as_xyz
1 x,y,z
_cell_length_a                   7.58263
_cell_length_b                   13.03625
_cell_length_c                   13.53215
_cell_angle_alpha                90.0
_cell_angle_beta                 98.7111
_cell_angle_gamma                90.0
loop_
_atom_site_label
_atom_site_type_symbol
_atom_site_fract_x
_atom_site_fract_y
_atom_site_fract_z
     1  S          0.03461000       0.13351600       0.09946500
     2  S          0.46539000       0.63351600       0.40053500
     3  S          0.96539000       0.86648400       0.90053500
     4  S          0.53461000       0.36648400       0.59946500
     5  S          0.11321000       0.91308500       0.13175500
     6  S          0.38679000       0.41308500       0.36824500
     7  S          0.88679000       0.08691500       0.86824500
     8  S          0.61321000       0.58691500       0.63175500
     9  S          0.17371000       0.19723600       0.30251600
    10  S          0.32629000       0.69723600       0.19748400
    11  S          0.82629000       0.80276400       0.69748400
    12  S          0.67371000       0.30276400       0.80251600
    13  S          0.25581000       0.93519300       0.34721600
    14  S          0.24419000       0.43519300       0.15278400
    15  S          0.74419000       0.06480700       0.65278400
    16  S          0.75581000       0.56480700       0.84721600
    17  C          0.03184000       0.00972000       0.04812000
    18  C          0.46816000       0.50972000       0.45188000
    19  C          0.96816000      -0.00972000       0.95188000
    20  C          0.53184000       0.49028000       0.54812000
    21  C          0.13294000       0.09522000       0.21922000
    22  C          0.36706000       0.59522000       0.28078000
    23  C          0.86706000       0.90478000       0.78078000
    24  C          0.63294000       0.40478000       0.71922000
    25  C          0.16884000      -0.00542000       0.23442000
    26  C          0.33116000       0.49458000       0.26558000
    27  C          0.83116000       0.00542000       0.76558000
    28  C          0.66884000       0.50542000       0.73442000
    29  C          0.24847000       0.13633000       0.41823000
    30  C          0.25153000       0.63633000       0.08177000
    31  C          0.75153000       0.86367000       0.58177000
    32  C          0.74847000       0.36367000       0.91823000
    33  C          0.20689000       0.03393000       0.43043000
    34  C          0.29311000       0.53393000       0.06957000
    35  C          0.79311000       0.96607000       0.56957000
    36  C          0.70689000       0.46607000       0.93043000
    37  H          0.37840000       0.13900000       0.42980000
    38  H          0.12160000       0.63900000       0.07020000
    39  H          0.62160000       0.86100000       0.57020000
    40  H          0.87840000       0.36100000       0.92980000
    41  H          0.20850000       0.17530000       0.47070000
    42  H          0.29150000       0.67530000       0.02930000
    43  H          0.79150000       0.82470000       0.52930000
    44  H          0.70850000       0.32470000       0.97070000
    45  H          0.07450000       0.03230000       0.42620000
    46  H          0.42550000       0.53230000       0.07380000
    47  H          0.92550000       0.96770000       0.57380000
    48  H          0.57450000       0.46770000       0.92620000
    49  H          0.25280000       0.01210000       0.49620000
    50  H          0.24720000       0.51210000       0.00380000
    51  H          0.74720000       0.98790000       0.50380000
    52  H          0.75280000       0.48790000      -0.00380000
    53  N          0.22934000       0.13353000       0.67338000
    54  N          0.27066000       0.63353000       0.82662000
    55  N          0.77066000       0.86647000       0.32662000
    56  N          0.72934000       0.36647000       0.17338000
    57  N          0.24784000       0.32102000       0.92698000
    58  N          0.25216000       0.82102000       0.57302000
    59  N          0.75216000       0.67898000       0.07302000
    60  N          0.74784000       0.17898000       0.42698000
    61  C          0.27094000       0.13322000       0.75738000
    62  C          0.22906000       0.63322000       0.74262000
    63  C          0.72906000       0.86678000       0.24262000
    64  C          0.77094000       0.36678000       0.25738000
    65  C          0.28384000       0.24142000       0.90018000
    66  C          0.21616000       0.74142000       0.59982000
    67  C          0.71616000       0.75858000       0.09982000
    68  C          0.78384000       0.25858000       0.40018000
    69  C          0.32564000       0.14232000       0.86398000
    70  C          0.17436000       0.64232000       0.63602000
    71  C          0.67436000       0.85768000       0.13602000
    72  C          0.82564000       0.35768000       0.36398000
    73  C          0.41083000       0.06992000       0.92758000
    74  C          0.08917000       0.56992000       0.57242000
    75  C          0.58917000       0.93008000       0.07242000
    76  C          0.91083000       0.43008000       0.42758000
    77  C          0.47014000       0.09822000       0.03072000
    78  C          0.02986000       0.59822000       0.46928000
    79  C          0.52986000       0.90178000       0.96928000
    80  C          0.97014000       0.40178000       0.53072000
    81  C          0.44653000       0.96378000       0.89918000
    82  C          0.05347000       0.46378000       0.60082000
    83  C          0.55347000       0.03622000       0.10082000
    84  C          0.94653000       0.53622000       0.39918000
    85  C          0.38794000       0.92328000       0.79618000
    86  C          0.11206000       0.42328000       0.70382000
    87  C          0.61206000       0.07672000       0.20382000
    88  C          0.88794000       0.57672000       0.29618000
    89  H          0.44590000       0.16800000       0.05000000
    90  H          0.05410000       0.66800000       0.45000000
    91  H          0.55410000       0.83200000       0.95000000
    92  H          0.94590000       0.33200000       0.55000000
    93  H          0.30510000       0.86810000       0.79780000
    94  H          0.19490000       0.36810000       0.70220000
    95  H          0.69490000       0.13190000       0.20220000
    96  H          0.80510000       0.63190000       0.29780000
    97  H          0.48740000       0.89840000       0.76750000
    98  H          0.01260000       0.39840000       0.73250000
    99  H          0.51260000       0.10160000       0.23250000
   100  H         -0.01260000       0.60160000       0.26750000
   101  H          0.33010000       0.97580000       0.75320000
   102  H          0.16990000       0.47580000       0.74680000
   103  H          0.66990000       0.02420000       0.24680000
   104  H          0.83010000       0.52420000       0.25320000
