data_ASAXIB
_symmetry_space_group_name_H-M    'P1'
_symmetry_Int_Tables_number       1
loop_
_symmetry_equiv_pos_site_id
_symmetry_equiv_pos_as_xyz
1 x,y,z
_cell_length_a                   7.00515
_cell_length_b                   8.61877
_cell_length_c                   18.586615
_cell_angle_alpha                101.1862
_cell_angle_beta                 97.1142
_cell_angle_gamma                101.4012
loop_
_atom_site_label
_atom_site_type_symbol
_atom_site_fract_x
_atom_site_fract_y
_atom_site_fract_z
     1  C          0.24782000       0.30522000       0.61067900
     2  C          0.75218000       0.69478000       0.38932100
     3  C          0.30053000       0.35382000       0.68838100
     4  C          0.69947000       0.64618000       0.31161900
     5  C          0.28523000       0.23402000       0.72942100
     6  C          0.71477000       0.76598000       0.27057900
     7  H          0.31990000       0.26470000       0.78150000
     8  H          0.68010000       0.73530000       0.21850000
     9  C          0.22083000       0.07233000       0.69554110
    10  C          0.77917000       0.92767000       0.30445890
    11  H          0.21170000      -0.00670000       0.72420000
    12  H          0.78830000       0.00670000       0.27580000
    13  C          0.16923000       0.02622000       0.61860110
    14  C          0.83077000       0.97378000       0.38139890
    15  H          0.12420000       0.91570000       0.59510000
    16  H          0.87580000       0.08430000       0.40490000
    17  C          0.18363000       0.14102000       0.57680100
    18  C          0.81637000       0.85898000       0.42319900
    19  H          0.14980000       0.10860000       0.52470000
    20  H          0.85020000       0.89140000       0.47530000
    21  O          0.42252000       0.56045180       0.79677800
    22  O          0.57748000       0.43954820       0.20322200
    23  C          0.37343000       0.52573000       0.72907110
    24  C          0.62657000       0.47427000       0.27092890
    25  O          0.38502000       0.64019170       0.69175800
    26  O          0.61498000       0.35980830       0.30824200
    27  H          0.34430000       0.58230000       0.63751300
    28  H          0.65570000       0.41770000       0.36248700
    29  N          0.26392000       0.42995180       0.57033800
    30  N          0.73608000       0.57004820       0.42966200
    31  N          0.21742000       0.38124180       0.49998800
    32  N          0.78258000       0.61875820       0.50001200
    33  C          0.23153000       0.50052000       0.45928100
    34  C          0.76847000       0.49948000       0.54071900
    35  C          0.17993000       0.44522000       0.38238100
    36  C          0.82007000       0.55478000       0.61761900
    37  H          0.13860000       0.33290000       0.36200000
    38  H          0.86140000       0.66710000       0.63800000
    39  C          0.18793000       0.55022000       0.33601100
    40  C          0.81207000       0.44978000       0.66398900
    41  H          0.15270000       0.50900000       0.28430000
    42  H          0.84730000       0.49100000       0.71570000
    43  C          0.24792000       0.71912000       0.36414100
    44  C          0.75208000       0.28088000       0.63585900
    45  C          0.29913000       0.77472000       0.44252100
    46  C          0.70087000       0.22528000       0.55747900
    47  H          0.33910000       0.88680000       0.46340000
    48  H          0.66090000       0.11320000       0.53660000
    49  C          0.29133000       0.66772000       0.48821100
    50  C          0.70867000       0.33228000       0.51178900
    51  H          0.32690000       0.70750000       0.54000000
    52  H          0.67310000       0.29250000       0.46000000
    53  N          0.25582000       0.82228190       0.31752900
    54  N          0.74418000       0.17771810       0.68247100
    55  C          0.20413000       0.76033000       0.23747110
    56  C          0.79587000       0.23967000       0.76252890
    57  H          0.28730000       0.68730000       0.22130000
    58  H          0.71270000       0.31270000       0.77870000
    59  H          0.22390000       0.85020000       0.21280000
    60  H          0.77610000       0.14980000       0.78720000
    61  H          0.06670000       0.70220000       0.22490000
    62  H          0.93330000       0.29780000       0.77510000
    63  C          0.31713000      -0.00228000       0.34458130
    64  C          0.68287000       0.00228000       0.65541870
    65  H          0.22820000       0.03430000       0.37670000
    66  H          0.77180000       0.96570000       0.62330000
    67  H          0.31350000       0.04960000       0.30270000
    68  H          0.68650000       0.95040000       0.69730000
    69  H          0.45050000       0.02620000       0.37240000
    70  H          0.54950000       0.97380000       0.62760000
    71  C          0.68943000       0.09142000       0.95849900
    72  C          0.31057000       0.90858000       0.04150100
    73  C          0.68033000       0.25062000       0.96045100
    74  C          0.31967000       0.74938000       0.03954900
    75  H          0.61370000       0.27850000       0.91940000
    76  H          0.38630000       0.72150000       0.08060000
    77  N          0.76263000       0.53862000       0.02524120
    78  N          0.23737000       0.46138000       0.97475880
    79  C          0.77013000       0.36822000       0.02340110
    80  C          0.22987000       0.63178000       0.97659890
    81  O          0.68393000       0.56852000       0.96900110
    82  O          0.31607000       0.43148000       0.03099890
    83  O          0.83533000       0.63903190       0.08151110
    84  O          0.16467000       0.36096810       0.91848890
    85  C          0.86643000       0.33322000       0.08520100
    86  C          0.13357000       0.66678000       0.91479900
    87  H          0.92560000       0.41470000       0.12790000
    88  H          0.07440000       0.58530000       0.87210000
    89  O          0.02592000       0.23669180       0.20393800
    90  O         -0.02592000       0.76330820       0.79606200
    91  N          0.96852000       0.13112000       0.14751900
    92  N          0.03148000       0.86888000       0.85248100
    93  C          0.87223000       0.17372000       0.08165100
    94  C          0.12777000       0.82628000       0.91834900
    95  O         -0.01418000      -0.00832830       0.14194700
    96  O          0.01418000       0.00832830       0.85805300
    97  C          0.78762000       0.05202000       0.01960900
    98  C          0.21238000       0.94798000       0.98039100
    99  H          0.79620000       0.94420000       0.01860000
   100  H          0.20380000       0.05580000       0.98140000
   101  O          0.47742000      -0.00542830       0.84181700
   102  O          0.52258000       0.00542830       0.15818300
   103  C          0.58463000       0.96502000       0.89078100
   104  C          0.41537000       0.03498000       0.10921900
   105  O          0.61922000       0.82275170       0.89296700
   106  O          0.38078000       0.17724830       0.10703300
   107  H          0.56630000       0.75230000       0.85701200
   108  H          0.43370000       0.24770000       0.14298800
