data_ASIBAG
_symmetry_space_group_name_H-M    'P1'
_symmetry_Int_Tables_number       1
loop_
_symmetry_equiv_pos_site_id
_symmetry_equiv_pos_as_xyz
1 x,y,z
_cell_length_a                   9.08651
_cell_length_b                   11.045913
_cell_length_c                   23.9913
_cell_angle_alpha                100.3893
_cell_angle_beta                 100.0273
_cell_angle_gamma                93.8233
loop_
_atom_site_label
_atom_site_type_symbol
_atom_site_fract_x
_atom_site_fract_y
_atom_site_fract_z
     1  N          0.23976000       0.83433000       0.35853000
     2  N          0.76024000       0.16567000       0.64147000
     3  C          0.19627000       0.93291000       0.36563000
     4  C          0.80373000       0.06709000       0.63437000
     5  C          0.14048000       0.05467000       0.37303000
     6  C          0.85952000       0.94533000       0.62697000
     7  H          0.19540000       0.10790000       0.35470000
     8  H          0.80460000       0.89210000       0.64530000
     9  H          0.15330000       0.08950000       0.41350000
    10  H          0.84670000       0.91050000       0.58650000
    11  H          0.03560000       0.04650000       0.35590000
    12  H          0.96440000       0.95350000       0.64410000
    13  N          0.85785000       0.56446000       0.68113000
    14  N          0.14215000       0.43554000       0.31887000
    15  C          0.74796000       0.50995000       0.66033000
    16  C          0.25204000       0.49005000       0.33967000
    17  C          0.60646000       0.44005000       0.63382000
    18  C          0.39354000       0.55995000       0.36618000
    19  H          0.60990000       0.35610000       0.63930000
    20  H          0.39010000       0.64390000       0.36070000
    21  H          0.58670000       0.44090000       0.59330000
    22  H          0.41330000       0.55910000       0.40670000
    23  H          0.52800000       0.47600000       0.65120000
    24  H          0.47200000       0.52400000       0.34880000
    25  S          0.49363100       0.14149800       0.05911400
    26  S          0.50636900       0.85850200       0.94088600
    27  S          0.61912100       0.10745900       0.17640400
    28  S          0.38087900       0.89254100       0.82359600
    29  S          0.86231100       0.37549800       0.18050400
    30  S          0.13768900       0.62450200       0.81949600
    31  S          0.69148100       0.36375800       0.06305400
    32  S          0.30851900       0.63624200       0.93694600
    33  S          0.53266100       0.38302800       0.93584400
    34  S          0.46733900       0.61697200       0.06415600
    35  S          0.43468100       0.40880800       0.81339400
    36  S          0.56531900       0.59119200       0.18660600
    37  S          0.19825100       0.13782800       0.80362400
    38  S          0.80174900       0.86217200       0.19637600
    39  S          0.32732100       0.16391800       0.92762400
    40  S          0.67267900       0.83608200       0.07237600
    41  O          0.48083000       0.20222000       0.71256100
    42  O          0.51917000       0.79778000       0.28743900
    43  O          0.12623000       0.21102000       0.68800100
    44  O          0.87377000       0.78898000       0.31199900
    45  C          0.54544000       0.25653000       0.02448150
    46  C          0.45456000       0.74347000       0.97551850
    47  C          0.62524000       0.19433000       0.12304140
    48  C          0.37476000       0.80567000       0.87695860
    49  C          0.78774000       0.17533000       0.22833150
    50  C          0.21226000       0.82467000       0.77166850
    51  H          0.78450000       0.14820000       0.26440000
    52  H          0.21550000       0.85180000       0.73560000
    53  H          0.87450000       0.14450000       0.21420000
    54  H          0.12550000       0.85550000       0.78580000
    55  C          0.80764000       0.31543000       0.23999150
    56  C          0.19236000       0.68457000       0.76000850
    57  H          0.88360000       0.34510000       0.27440000
    58  H          0.11640000       0.65490000       0.72560000
    59  H          0.71400000       0.34660000       0.24720000
    60  H          0.28600000       0.65340000       0.75280000
    61  C          0.71914000       0.29863000       0.12438140
    62  C          0.28086000       0.70137000       0.87561860
    63  C          0.47584000       0.26563000       0.96872150
    64  C          0.52416000       0.73437000       0.03127850
    65  C          0.41514000       0.32803000       0.86860150
    66  C          0.58486000       0.67197000       0.13139850
    67  C          0.31824000       0.22633000       0.86484140
    68  C          0.68176000       0.77367000       0.13515860
    69  C          0.60674000       0.35183000       0.79357150
    70  C          0.39326000       0.64817000       0.20642850
    71  H          0.64030000       0.39950000       0.76710000
    72  H          0.35970000       0.60050000       0.23290000
    73  H          0.68450000       0.36480000       0.82800000
    74  H          0.31550000       0.63520000       0.17200000
    75  C          0.05434000       0.23464000       0.77967160
    76  C          0.94566000       0.76536000       0.22032840
    77  H          0.95910000       0.18330000       0.76760000
    78  H          0.04090000       0.81670000       0.23240000
    79  H          0.04510000       0.29710000       0.81260000
    80  H          0.95490000       0.70290000       0.18740000
    81  C          0.58664000       0.21643000       0.76569150
    82  C          0.41336000       0.78357000       0.23430850
    83  H          0.68190000       0.18900000       0.75830000
    84  H          0.31810000       0.81100000       0.24170000
    85  H          0.54940000       0.16720000       0.79090000
    86  H          0.45060000       0.83280000       0.20910000
    87  C          0.07854000       0.29883000       0.73149150
    88  C          0.92146000       0.70117000       0.26850850
    89  H         -0.01400000       0.32930000       0.71540000
    90  H          0.01400000       0.67070000       0.28460000
    91  H          0.15460000       0.36860000       0.74580000
    92  H          0.84540000       0.63140000       0.25420000
    93  C          0.17124000       0.25603000       0.64325150
    94  C          0.82876000       0.74397000       0.35674850
    95  C          0.11874000       0.36403000       0.62560160
    96  C          0.88126000       0.63597000       0.37439840
    97  H          0.05490000       0.40910000       0.64560000
    98  H          0.94510000       0.59090000       0.35440000
    99  C          0.16194000       0.40153000       0.57934160
   100  C          0.83806000       0.59847000       0.42065840
   101  H          0.12560000       0.47170000       0.56800000
   102  H          0.87440000       0.52830000       0.43200000
   103  C          0.26024000       0.33683000       0.54813150
   104  C          0.73976000       0.66317000       0.45186850
   105  C          0.30725000       0.37484000       0.49976180
   106  C          0.69275000       0.62516000       0.50023820
   107  H          0.27000000       0.44340000       0.48700000
   108  H          0.73000000       0.55660000       0.51300000
   109  C          0.40525000       0.31244000       0.47212190
   110  C          0.59475000       0.68756000       0.52787810
   111  H          0.43480000       0.33840000       0.44060000
   112  H          0.56520000       0.66160000       0.55940000
   113  C          0.46305000       0.20764000       0.49107180
   114  C          0.53695000       0.79236000       0.50892820
   115  H          0.53210000       0.16660000       0.47230000
   116  H          0.46790000       0.83340000       0.52770000
   117  C          0.41884000       0.16623000       0.53631160
   118  C          0.58116000       0.83377000       0.46368840
   119  H          0.45690000       0.09660000       0.54770000
   120  H          0.54310000       0.90340000       0.45230000
   121  C          0.31444000       0.22863000       0.56635150
   122  C          0.68556000       0.77137000       0.43364850
   123  C          0.26744000       0.18833000       0.61420140
   124  C          0.73256000       0.81167000       0.38579860
   125  C          0.32244000       0.07503000       0.63346140
   126  C          0.67756000       0.92497000       0.36653860
   127  C          0.26604000       0.95517000       0.60065150
   128  C          0.73396000       0.04483000       0.39934850
   129  C          0.15994000       0.93847000       0.54768160
   130  C          0.84006000       0.06153000       0.45231840
   131  H          0.12580000       0.00760000       0.53430000
   132  H          0.87420000      -0.00760000       0.46570000
   133  C          0.10754000       0.82247000       0.51612170
   134  C          0.89246000       0.17753000       0.48387830
   135  H          0.04080000       0.81350000       0.48120000
   136  H          0.95920000       0.18650000       0.51880000
   137  C          0.15495000       0.71686000       0.53676180
   138  C          0.84505000       0.28314000       0.46323820
   139  H          0.11650000       0.63860000       0.51590000
   140  H          0.88350000       0.36140000       0.48410000
   141  C          0.25654000       0.72846000       0.58706170
   142  C          0.74346000       0.27154000       0.41293830
   143  H          0.28600000       0.65800000       0.60030000
   144  H          0.71400000       0.34200000       0.39970000
   145  C          0.31764000       0.84787000       0.61952150
   146  C          0.68236000       0.15213000       0.38047850
   147  C          0.42984000       0.86317000       0.66912160
   148  C          0.57016000       0.13683000       0.33087840
   149  H          0.46640000       0.79360000       0.68110000
   150  H          0.53360000       0.20640000       0.31890000
   151  C          0.48704000       0.97857000       0.70061150
   152  C          0.51296000       0.02143000       0.29938850
   153  H          0.56220000      -0.01330000       0.73310000
   154  H          0.43780000       0.01330000       0.26690000
   155  C          0.43014000       0.08523000       0.68294150
   156  C          0.56986000       0.91477000       0.31705850
   157  F          0.17952000       0.39940190       0.00976900
   158  F          0.82048000       0.60059810       0.99023100
   159  F          0.31672000       0.38434190       0.11319900
   160  F          0.68328000       0.61565810       0.88680100
   161  F          0.96748000       0.04544190       0.11395900
   162  F          0.03252000       0.95455810       0.88604100
   163  F          0.82708000       0.06202190       0.01144900
   164  F          0.17292000       0.93797810       0.98855100
   165  N          0.43354000       0.36623000       0.24118140
   166  N          0.56646000       0.63377000       0.75881860
   167  N          0.15114000       0.04454000       0.23364160
   168  N          0.84886000       0.95546000       0.76635840
   169  N          0.69046000       0.09243000       0.89022860
   170  N          0.30954000       0.90757000       0.10977140
   171  N          0.97326000       0.42573000       0.89909850
   172  N          0.02674000       0.57427000       0.10090150
   173  C         -0.00554000       0.23253000       0.00471150
   174  C          0.00554000       0.76747000      -0.00471150
   175  C          0.95086000       0.14243000       0.03504150
   176  C          0.04914000       0.85757000       0.96495850
   177  C          0.02354000       0.13413000       0.08887160
   178  C          0.97646000       0.86587000       0.91112840
   179  C          0.15114000       0.21473000       0.12014150
   180  C          0.84886000       0.78527000       0.87985850
   181  C          0.19454000       0.30333000       0.08883160
   182  C          0.80546000       0.69667000       0.91116840
   183  C          0.12394000       0.31203000       0.03506160
   184  C          0.87606000       0.68797000       0.96493840
   185  C          0.22164000       0.20903000       0.17689150
   186  C          0.77836000       0.79097000       0.82310850
   187  C          0.33984000       0.29853000       0.21080150
   188  C          0.66016000       0.70147000       0.78919850
   189  C          0.18024000       0.11584000       0.20704170
   190  C          0.81976000       0.88416000       0.79295830
   191  C          0.91516000       0.24493000       0.94923850
   192  C          0.08484000       0.75507000       0.05076150
   193  C          0.79086000       0.15874000       0.91708840
   194  C          0.20914000       0.84126000       0.08291160
   195  C          0.95026000       0.34554000       0.92235840
   196  C          0.04974000       0.65446000       0.07764160
