data_ASIWIJ
_symmetry_space_group_name_H-M    'P1'
_symmetry_Int_Tables_number       1
loop_
_symmetry_equiv_pos_site_id
_symmetry_equiv_pos_as_xyz
1 x,y,z
_cell_length_a                   9.7402
_cell_length_b                   10.5802
_cell_length_c                   13.3673
_cell_angle_alpha                87.9758
_cell_angle_beta                 87.6478
_cell_angle_gamma                88.5408
loop_
_atom_site_label
_atom_site_type_symbol
_atom_site_fract_x
_atom_site_fract_y
_atom_site_fract_z
     1  N          0.07934000       0.09223000       0.38193000
     2  N          0.92066000       0.90777000       0.61807000
     3  C         -0.01064000       0.12484000       0.30973000
     4  C          0.01064000       0.87516000       0.69027000
     5  C          0.00324000       0.06994000       0.21433000
     6  C         -0.00324000       0.93006000       0.78567000
     7  C          0.91756000       0.10674000       0.13873000
     8  C          0.08244000       0.89326000       0.86127000
     9  H          0.92850000       0.06980000       0.07500000
    10  H          0.07150000       0.93020000       0.92500000
    11  C          0.81426000       0.19874000       0.15613000
    12  C          0.18574000       0.80126000       0.84387000
    13  C          0.79266000       0.25024000       0.24813000
    14  C          0.20734000       0.74976000       0.75187000
    15  H          0.71930000       0.30940000       0.25970000
    16  H          0.28070000       0.69060000       0.74030000
    17  C          0.88136000       0.21394000       0.32563000
    18  C          0.11864000       0.78606000       0.67437000
    19  N          0.86136000       0.26884000       0.41653000
    20  N          0.13864000       0.73116000       0.58347000
    21  C          0.94905000       0.23465000       0.48513000
    22  C          0.05095000       0.76535000       0.51487000
    23  H          0.93670000       0.26970000       0.54940000
    24  H          0.06330000       0.73030000       0.45060000
    25  C          0.06184000       0.14794000       0.46893000
    26  C          0.93816000       0.85206000       0.53107000
    27  C          0.16124000       0.11584000       0.54713000
    28  C          0.83876000       0.88416000       0.45287000
    29  C          0.14785000       0.17114000       0.64153000
    30  C          0.85215000       0.82886000       0.35847000
    31  H          0.07400000       0.22910000       0.65520000
    32  H          0.92600000       0.77090000       0.34480000
    33  C          0.24145000       0.14145000       0.71433000
    34  C          0.75855000       0.85855000       0.28567000
    35  H          0.23110000       0.17770000       0.77830000
    36  H          0.76890000       0.82230000       0.22170000
    37  C          0.34984000       0.05884000       0.69363000
    38  C          0.65016000       0.94116000       0.30637000
    39  C          0.36635000       0.00524000       0.59993000
    40  C          0.63365000      -0.00524000       0.40007000
    41  H          0.44170000       0.94900000       0.58590000
    42  H          0.55830000       0.05100000       0.41410000
    43  C          0.27285000       0.03444000       0.52793000
    44  C          0.72715000       0.96556000       0.47207000
    45  H          0.28450000      -0.00160000       0.46390000
    46  H          0.71550000       0.00160000       0.53610000
    47  Br         0.13826500       0.94123500       0.19215300
    48  Br         0.86173500       0.05876500       0.80784700
    49  C          0.73105000       0.24415000       0.06893000
    50  C          0.26895000       0.75585000       0.93107000
    51  F          0.68417000       0.14883000       0.01802000
    52  F          0.31583000       0.85117000       0.98198000
    53  F          0.80887000       0.31373000       0.00352000
    54  F          0.19113000       0.68627000      -0.00352000
    55  F          0.62257000       0.31663000       0.09642000
    56  F          0.37743000       0.68337000       0.90358000
    57  Cl         0.46792110       0.02335100       0.78457800
    58  Cl         0.53207890       0.97664900       0.21542200
    59  N          0.35203000       0.32743000       0.37073000
    60  N          0.64797000       0.67257000       0.62927000
    61  C          0.27584000       0.34304000       0.28733000
    62  C          0.72416000       0.65696000       0.71267000
    63  C          0.31654000       0.27564000       0.20053000
    64  C          0.68346000       0.72436000       0.79947000
    65  H          0.39330000       0.21840000       0.20150000
    66  H          0.60670000       0.78160000       0.79850000
    67  C          0.24414000       0.29394000       0.11603000
    68  C          0.75586000       0.70606000       0.88397000
    69  C          0.13064000       0.38084000       0.11233000
    70  C          0.86936000       0.61916000       0.88767000
    71  H          0.08370000       0.39510000       0.05180000
    72  H          0.91630000       0.60490000       0.94820000
    73  C          0.09004000       0.44304000       0.19553000
    74  C          0.90996000       0.55696000       0.80447000
    75  C          0.16004000       0.42644000       0.28623000
    76  C          0.83996000       0.57356000       0.71377000
    77  N          0.11664000       0.48894000       0.37003000
    78  N          0.88336000       0.51106000       0.62997000
    79  C          0.19105000       0.47014000       0.44903000
    80  C          0.80895000       0.52986000       0.55097000
    81  H          0.16270000       0.51160000       0.50860000
    82  H          0.83730000       0.48840000       0.49140000
    83  C          0.31234000       0.39084000       0.45073000
    84  C          0.68766000       0.60916000       0.54927000
    85  C          0.39614000       0.37694000       0.54033000
    86  C          0.60386000       0.62306000       0.45967000
    87  C          0.35815000       0.43934000       0.62853000
    88  C          0.64185000       0.56066000       0.37147000
    89  H          0.27710000       0.49140000       0.63040000
    90  H          0.72290000       0.50860000       0.36960000
    91  C          0.43605000       0.42664000       0.71273000
    92  C          0.56395000       0.57336000       0.28727000
    93  H          0.41010000       0.47020000       0.77170000
    94  H          0.58990000       0.52980000       0.22830000
    95  C          0.55314000       0.34874000       0.70893000
    96  C          0.44686000       0.65126000       0.29107000
    97  C          0.59465000       0.28864000       0.62263000
    98  C          0.40535000       0.71136000       0.37737000
    99  H          0.67640000       0.23770000       0.62060000
   100  H          0.32360000       0.76230000       0.37940000
   101  C          0.51595000       0.30304000       0.53903000
   102  C          0.48405000       0.69696000       0.46097000
   103  H          0.54440000       0.26140000       0.47960000
   104  H          0.45560000       0.73860000       0.52040000
   105  Br         0.93903600       0.55924400       0.18851300
   106  Br         0.06096400       0.44075600       0.81148700
   107  C          0.28605000       0.22705000       0.02183000
   108  C          0.71395000       0.77295000       0.97817000
   109  F          0.38173000       0.13753000       0.03552000
   110  F          0.61827000       0.86247000       0.96448000
   111  F          0.17793000       0.17213000       0.98238000
   112  F          0.82207000       0.82787000       0.01762000
   113  F          0.33423000       0.30723000       0.94988000
   114  F          0.66577000       0.69277000       0.05012000
   115  Cl         0.65051110       0.33185100       0.81469700
   116  Cl         0.34948890       0.66814900       0.18530300
