data_ATAGOU
_symmetry_space_group_name_H-M    'P1'
_symmetry_Int_Tables_number       1
loop_
_symmetry_equiv_pos_site_id
_symmetry_equiv_pos_as_xyz
1 x,y,z
_cell_length_a                   17.46882
_cell_length_b                   11.89852
_cell_length_c                   9.896801
_cell_angle_alpha                90.0
_cell_angle_beta                 92.87001
_cell_angle_gamma                90.0
loop_
_atom_site_label
_atom_site_type_symbol
_atom_site_fract_x
_atom_site_fract_y
_atom_site_fract_z
     1  I          0.77349200       0.52898200       0.49432200
     2  I          0.22650800       0.02898200       0.00567800
     3  I          0.22650800       0.47101800       0.50567800
     4  I          0.77349200       0.97101800      -0.00567800
     5  I          0.82293200       0.26964200       0.31541200
     6  I          0.17706800       0.76964200       0.18458800
     7  I          0.17706800       0.73035800       0.68458800
     8  I          0.82293200       0.23035800       0.81541200
     9  F          0.91290120       0.57901170       0.69642000
    10  F          0.08709880       0.07901170       0.80358000
    11  F          0.08709880       0.42098830       0.30358000
    12  F          0.91290120       0.92098830       0.19642000
    13  F          0.07885130       0.27672000       0.63623000
    14  F          0.92114870       0.77672000       0.86377000
    15  F          0.92114870       0.72328000       0.36377000
    16  F          0.07885130       0.22328000       0.13623000
    17  F          0.04380120       0.47237190       0.76202000
    18  F          0.95619880       0.97237190       0.73798000
    19  F          0.95619880       0.52762810       0.23798000
    20  F          0.04380120       0.02762810       0.26202000
    21  F          0.98254140       0.19093190       0.44362000
    22  F          0.01745860       0.69093190       0.05638000
    23  F          0.01745860       0.80906810       0.55638000
    24  F          0.98254140       0.30906810       0.94362000
    25  C          0.87653170       0.44133000       0.53253000
    26  C          0.12346830       0.94133000       0.96747000
    27  C          0.12346830       0.55867000       0.46747000
    28  C          0.87653170       0.05867000       0.03253000
    29  C          0.89479170       0.34123000       0.46673000
    30  C          0.10520830       0.84123000       0.03327000
    31  C          0.10520830       0.65877000       0.53327000
    32  C          0.89479170       0.15877000       0.96673000
    33  C          0.92732180       0.48333000       0.63173000
    34  C          0.07267820       0.98333000       0.86827000
    35  C          0.07267820       0.51667000       0.36827000
    36  C          0.92732180       0.01667000       0.13173000
    37  C          0.96296190       0.28743000       0.50354000
    38  C          0.03703810       0.78743000      -0.00354000
    39  C          0.03703810       0.71257000       0.49646000
    40  C          0.96296190       0.21257000       0.00354000
    41  C         -0.00419810       0.42863000       0.66653000
    42  C          0.00419810       0.92863000       0.83347000
    43  C          0.00419810       0.57137000       0.33347000
    44  C         -0.00419810       0.07137000       0.16653000
    45  C          0.01288190       0.32993000       0.60284000
    46  C          0.98711810       0.82993000       0.89716000
    47  C          0.98711810       0.67007000       0.39716000
    48  C          0.01288190       0.17007000       0.10284000
    49  S          0.59465400       0.60556600       0.43812700
    50  S          0.40534600       0.10556600       0.06187300
    51  S          0.40534600       0.39443400       0.56187300
    52  S          0.59465400       0.89443400       0.93812700
    53  N          0.59197140       0.77002000       0.62303000
    54  N          0.40802860       0.27002000       0.87697000
    55  N          0.40802860       0.22998000       0.37697000
    56  N          0.59197140       0.72998000       0.12303000
    57  H          0.57270900       0.79968500       0.69288500
    58  H          0.42729100       0.29968500       0.80711500
    59  H          0.42729100       0.20031500       0.30711500
    60  H          0.57270900       0.70031500       0.19288500
    61  N          0.49648150       0.63622000       0.62783000
    62  N          0.50351850       0.13622000       0.87217000
    63  N          0.50351850       0.36378000       0.37217000
    64  N          0.49648150       0.86378000       0.12783000
    65  H          0.48269700       0.56999100       0.60149600
    66  H          0.51730300       0.06999100       0.89850400
    67  H          0.51730300       0.43000900       0.39850400
    68  H          0.48269700       0.93000900       0.10149600
    69  C          0.55885160       0.67672000       0.57053000
    70  C          0.44114840       0.17672000       0.92947000
    71  C          0.44114840       0.32328000       0.42947000
    72  C          0.55885160       0.82328000       0.07053000
    73  C          0.44970160       0.68562000       0.72503000
    74  C          0.55029840       0.18562000       0.77497000
    75  C          0.55029840       0.31438000       0.27497000
    76  C          0.44970160       0.81438000       0.22503000
    77  C          0.65752170       0.82252000       0.56913000
    78  C          0.34247830       0.32252000       0.93087000
    79  C          0.34247830       0.17748000       0.43087000
    80  C          0.65752170       0.67748000       0.06913000
    81  C          0.43443170       0.80053000       0.72873000
    82  C          0.56556830       0.30053000       0.77127000
    83  C          0.56556830       0.19947000       0.27127000
    84  C          0.43443170       0.69947000       0.22873000
    85  H          0.45704800       0.84926000       0.66903200
    86  H          0.54295200       0.34926000       0.83096800
    87  H          0.54295200       0.15074000       0.33096800
    88  H          0.45704800       0.65074000       0.16903200
    89  C          0.41383180       0.61303000       0.81223000
    90  C          0.58616820       0.11303000       0.68777000
    91  C          0.58616820       0.38697000       0.18777000
    92  C          0.41383180       0.88697000       0.31223000
    93  H          0.42400100       0.53638000       0.80948300
    94  H          0.57599900       0.03638000       0.69051700
    95  H          0.57599900       0.46362000       0.19051700
    96  H          0.42400100       0.96362000       0.30948300
    97  C          0.34948190       0.76903000       0.91013000
    98  C          0.65051810       0.26903000       0.58987000
    99  C          0.65051810       0.23097000       0.08987000
   100  C          0.34948190       0.73097000       0.41013000
   101  H          0.31668100       0.79716700       0.97307100
   102  H          0.68331900       0.29716700       0.52692900
   103  H          0.68331900       0.20283300       0.02692900
   104  H          0.31668100       0.70283300       0.47307100
   105  C          0.38474170       0.84143000       0.82333000
   106  C          0.61525830       0.34143000       0.67667000
   107  C          0.61525830       0.15857000       0.17667000
   108  C          0.38474170       0.65857000       0.32333000
   109  H          0.37524000       0.91815700       0.82798600
   110  H          0.62476000       0.41815700       0.67201400
   111  H          0.62476000       0.08184300       0.17201400
   112  H          0.37524000       0.58184300       0.32798600
   113  C          0.36302000       0.65453000       0.90323000
   114  C          0.63698000       0.15453000       0.59677000
   115  C          0.63698000       0.34547000       0.09677000
   116  C          0.36302000       0.84547000       0.40323000
   117  H          0.33806100       0.60553400       0.95948800
   118  H          0.66193900       0.10553400       0.54051200
   119  H          0.66193900       0.39446600       0.04051200
   120  H          0.33806100       0.89446600       0.45948800
   121  C          0.65218190       0.87153000       0.44153000
   122  C          0.34781810       0.37153000       0.05847000
   123  C          0.34781810       0.12847000       0.55847000
   124  C          0.65218190       0.62847000       0.94153000
   125  H          0.60580500       0.87174500       0.39103400
   126  H          0.39419500       0.37174500       0.10896600
   127  H          0.39419500       0.12825500       0.60896600
   128  H          0.60580500       0.62825500       0.89103400
   129  C          0.72543190       0.82633000       0.64673000
   130  C          0.27456810       0.32633000       0.85327000
   131  C          0.27456810       0.17367000       0.35327000
   132  C          0.72543190       0.67367000       0.14673000
   133  H          0.72844700       0.79517700       0.73294300
   134  H          0.27155300       0.29517700       0.76705700
   135  H          0.27155300       0.20482300       0.26705700
   136  H          0.72844700       0.70482300       0.23294300
   137  C          0.71702000       0.92013000       0.39013000
   138  C          0.28298000       0.42013000       0.10987000
   139  C          0.28298000       0.07987000       0.60987000
   140  C          0.71702000       0.57987000       0.89013000
   141  H          0.71424300       0.95091300       0.30363700
   142  H          0.28575700       0.45091300       0.19636300
   143  H          0.28575700       0.04908700       0.69636300
   144  H          0.71424300       0.54908700       0.80363700
   145  C          0.78512000       0.92323000       0.46584000
   146  C          0.21488000       0.42323000       0.03416000
   147  C          0.21488000       0.07677000       0.53416000
   148  C          0.78512000       0.57677000       0.96584000
   149  H          0.82816600       0.95606900       0.43069000
   150  H          0.17183400       0.45606900       0.06931000
   151  H          0.17183400       0.04393100       0.56931000
   152  H          0.82816600       0.54393100       0.93069000
   153  C          0.78952000       0.87743000       0.59444000
   154  C          0.21048000       0.37743000       0.90556000
   155  C          0.21048000       0.12257000       0.40556000
   156  C          0.78952000       0.62257000       0.09444000
   157  H          0.83529600       0.88060700       0.64621000
   158  H          0.16470400       0.38060700       0.85379000
   159  H          0.16470400       0.11939300       0.35379000
   160  H          0.83529600       0.61939300       0.14621000
