data_ATAGAG
_symmetry_space_group_name_H-M    'P1'
_symmetry_Int_Tables_number       1
loop_
_symmetry_equiv_pos_site_id
_symmetry_equiv_pos_as_xyz
1 x,y,z
_cell_length_a                   8.11564
_cell_length_b                   13.48537
_cell_length_c                   14.31038
_cell_angle_alpha                99.0865
_cell_angle_beta                 95.2634
_cell_angle_gamma                93.4484
loop_
_atom_site_label
_atom_site_type_symbol
_atom_site_fract_x
_atom_site_fract_y
_atom_site_fract_z
     1  I          0.51189300       0.67985200       0.96898200
     2  I          0.48810700       0.32014800       0.03101800
     3  I          0.04815300       0.67334200       0.96883200
     4  I          0.95184700       0.32665800       0.03116800
     5  F          0.91288000       0.46958130       0.84467130
     6  F          0.08712000       0.53041870       0.15532870
     7  F          0.58042000       0.47746130       0.84786130
     8  F          0.41958000       0.52253870       0.15213870
     9  F          0.05462000       0.31141130       0.75626130
    10  F          0.94538000       0.68858870       0.24373870
    11  F          0.38892000       0.31593130       0.75760130
    12  F          0.61108000       0.68406870       0.24239870
    13  C          0.17494000       0.55782000       0.89842000
    14  C          0.82506000       0.44218000       0.10158000
    15  C          0.34584000       0.56022000       0.89802000
    16  C          0.65416000       0.43978000       0.10198000
    17  C          0.41534000       0.47852000       0.84952000
    18  C          0.58466000       0.52148000       0.15048000
    19  C          0.07834000       0.47382000       0.84872000
    20  C          0.92166000       0.52618000       0.15128000
    21  C          0.15054000       0.39302000       0.80202000
    22  C          0.84946000       0.60698000       0.19798000
    23  C          0.31844000       0.39522000       0.80272000
    24  C          0.68156000       0.60478000       0.19728000
    25  I          0.54399300       0.66855200       0.68465200
    26  I          0.45600700       0.33144800       0.31534800
    27  I          0.00456300       0.67163200       0.67857200
    28  I         -0.00456300       0.32836800       0.32142800
    29  F          0.40942000       0.44671130       0.61163130
    30  F          0.59058000       0.55328870       0.38836870
    31  F          0.07442000       0.45108130       0.59977130
    32  F          0.92558000       0.54891870       0.40022870
    33  F          0.88472000       0.27635130       0.55918130
    34  F          0.11528000       0.72364870       0.44081870
    35  F          0.55432000       0.27386130       0.56624130
    36  F          0.44568000       0.72613870       0.43375870
    37  C          0.83964000       0.54322000       0.63332000
    38  C          0.16036000       0.45678000       0.36668000
    39  C          0.66984000       0.54192000       0.63622000
    40  C          0.33016000       0.45808000       0.36378000
    41  C          0.91004000       0.45382000       0.60492000
    42  C          0.08996000       0.54618000       0.39508000
    43  C          0.57424000       0.45122000       0.61122000
    44  C          0.42576000       0.54878000       0.38878000
    45  C          0.81414000       0.36352000       0.58272000
    46  C          0.18586000       0.63648000       0.41728000
    47  C          0.64674000       0.36182000       0.58592000
    48  C          0.35326000       0.63818000       0.41408000
    49  S          0.30207110       0.85729400       0.79163500
    50  S          0.69792890       0.14270600       0.20836500
    51  F          0.34972000       0.12094130       0.44222120
    52  F          0.65028000       0.87905870       0.55777880
    53  F          0.19983000       0.21548130       0.52922130
    54  F          0.80017000       0.78451870       0.47077870
    55  F          0.08802000       0.08813150       0.42844130
    56  F          0.91198000       0.91186850       0.57155870
    57  N          0.23243000       0.02486170       0.72306170
    58  N          0.76757000       0.97513830       0.27693830
    59  H          0.21510000       0.04800000       0.78060000
    60  H          0.78490000       0.95200000       0.21940000
    61  C          0.29924000       0.89318000       0.60782000
    62  C          0.70076000       0.10682000       0.39218000
    63  H          0.32690000       0.82740000       0.59010000
    64  H          0.67310000       0.17260000       0.40990000
    65  C          0.23954000       0.05372000       0.56602000
    66  C          0.76046000       0.94628000       0.43398000
    67  C          0.28154000       0.95408000       0.54112000
    68  C          0.71846000       0.04592000       0.45888000
    69  H          0.29730000       0.92970000       0.47840000
    70  H          0.70270000       0.07030000       0.52160000
    71  C          0.21424000       0.08682000       0.65792000
    72  C          0.78576000       0.91318000       0.34208000
    73  H          0.18450000       0.15200000       0.67600000
    74  H          0.81550000       0.84800000       0.32400000
    75  C          0.21954000       0.12032000       0.49282000
    76  C          0.78046000       0.87968000       0.50718000
    77  C          0.27614000       0.92838000       0.70422000
    78  C          0.72386000       0.07162000       0.29578000
    79  S          0.81969890       0.85439400       0.06751500
    80  S          0.18030110       0.14560600       0.93248500
    81  F          0.59838000       0.07162150       0.69354130
    82  F          0.40162000       0.92837850       0.30645870
    83  F          0.85597000       0.11642150       0.71756140
    84  F          0.14403000       0.88357850       0.28243860
    85  F          0.68617000       0.20141140       0.79699140
    86  F          0.31383000       0.79858860       0.20300860
    87  N          0.74327000       0.01803170      -0.00463840
    88  N          0.25673000       0.98196830       0.00463840
    89  H          0.72910000       0.04260000       0.05300000
    90  H          0.27090000       0.95740000       0.94700000
    91  C          0.73966000       0.04212000       0.83622000
    92  C          0.26034000       0.95788000       0.16378000
    93  C          0.78906000       0.92168000       0.97742000
    94  C          0.21094000       0.07832000       0.02258000
    95  C          0.71876000       0.07712000       0.92822000
    96  C          0.28124000       0.92288000       0.07178000
    97  H          0.68750000       0.14220000       0.94520000
    98  H          0.31250000       0.85780000       0.05480000
    99  C          0.71966000       0.10832000       0.76252000
   100  C          0.28034000       0.89168000       0.23748000
   101  C          0.80796000       0.88428000       0.88142000
   102  C          0.19204000       0.11572000       0.11858000
   103  H          0.83690000       0.81870000       0.86460000
   104  H          0.16310000       0.18130000       0.13540000
   105  C          0.78416000       0.94338000       0.81322000
   106  C          0.21584000       0.05662000       0.18678000
   107  H          0.79770000       0.91760000       0.75040000
   108  H          0.20230000       0.08240000       0.24960000
