data_ATAHOV
_symmetry_space_group_name_H-M    'P1'
_symmetry_Int_Tables_number       1
loop_
_symmetry_equiv_pos_site_id
_symmetry_equiv_pos_as_xyz
1 x,y,z
_cell_length_a                   5.28253
_cell_length_b                   8.60233
_cell_length_c                   23.135713
_cell_angle_alpha                90.0
_cell_angle_beta                 92.2112
_cell_angle_gamma                90.0
loop_
_atom_site_label
_atom_site_type_symbol
_atom_site_fract_x
_atom_site_fract_y
_atom_site_fract_z
     1  S          0.68827000       0.52615160       0.26920700
     2  S          0.81173000       0.02615160       0.23079300
     3  S          0.31173000       0.47384840       0.73079300
     4  S          0.18827000       0.97384840       0.76920700
     5  N          0.05491000       0.39335000       0.21173000
     6  N          0.44509000       0.89335000       0.28827000
     7  N          0.94509000       0.60665000       0.78827000
     8  N          0.55491000       0.10665000       0.71173000
     9  H          0.19490000       0.40060000       0.19130000
    10  H          0.30510000       0.90060000       0.30870000
    11  H          0.80510000       0.59940000       0.80870000
    12  H          0.69490000       0.09940000       0.69130000
    13  H          0.95820000       0.31320000       0.21930000
    14  H          0.54180000       0.81320000       0.28070000
    15  H          0.04180000       0.68680000       0.78070000
    16  H          0.45820000       0.18680000       0.71930000
    17  N          0.04161000       0.65655000       0.20672000
    18  N          0.45839000       0.15655000       0.29328000
    19  N          0.95839000       0.34345000       0.79328000
    20  N          0.54161000       0.84345000       0.70672000
    21  H          0.17880000       0.65370000       0.18420000
    22  H          0.32120000       0.15370000       0.31580000
    23  H          0.82120000       0.34630000       0.81580000
    24  H          0.67880000       0.84630000       0.68420000
    25  H          0.95690000       0.74440000       0.21730000
    26  H          0.54310000       0.24440000       0.28270000
    27  H          0.04310000       0.25560000       0.78270000
    28  H          0.45690000       0.75560000       0.71730000
    29  C          0.94539000       0.52466000       0.22582000
    30  C          0.55461000       0.02466000       0.27418000
    31  C          0.05461000       0.47534000       0.77418000
    32  C          0.44539000       0.97534000       0.72582000
    33  I          0.08168800       0.51996400       0.37819200
    34  I          0.41831200       0.01996400       0.12180800
    35  I          0.91831200       0.48003600       0.62180800
    36  I          0.58168800       0.98003600       0.87819200
    37  F          0.52368000       0.28184000       0.41663190
    38  F         -0.02368000       0.78184000       0.08336810
    39  F          0.47632000       0.71816000       0.58336810
    40  F          0.02368000       0.21816000       0.91663190
    41  F          0.83868000       0.26424000       0.50804190
    42  F          0.66132000       0.76424000       0.99195810
    43  F          0.16132000       0.73576000       0.49195810
    44  F          0.33868000       0.23576000       0.00804190
    45  C          0.33121100       0.50847000       0.45093000
    46  C          0.16878900       0.00847000       0.04907000
    47  C          0.66878900       0.49153000       0.54907000
    48  C          0.83121100      -0.00847000       0.95093000
    49  C          0.50681100       0.39086000       0.45713000
    50  C         -0.00681100       0.89086000       0.04287000
    51  C          0.49318900       0.60914000       0.54287000
    52  C          0.00681100       0.10914000       0.95713000
    53  C          0.67031200       0.38377000       0.50413000
    54  C          0.82968800       0.88377000      -0.00413000
    55  C          0.32968800       0.61623000       0.49587000
    56  C          0.17031200       0.11623000       0.00413000
    57  N          0.42061300       0.52698000       0.11523000
    58  N          0.07938700       0.02698000       0.38477000
    59  N          0.57938700       0.47302000       0.88477000
    60  N          0.92061300       0.97302000       0.61523000
    61  C          0.59261300       0.47828000       0.09363000
    62  C          0.90738700       0.97828000       0.40637000
    63  C          0.40738700       0.52172000       0.90637000
    64  C          0.09261300       0.02172000       0.59363000
    65  C          0.80621400       0.41199000       0.06574000
    66  C          0.69378600       0.91199000       0.43426000
    67  C          0.19378600       0.58801000       0.93426000
    68  C          0.30621400       0.08801000       0.56574000
    69  H          0.82598800       0.30288400       0.07738700
    70  H          0.67401200       0.80288400       0.42261300
    71  H          0.17401200       0.69711600       0.92261300
    72  H          0.32598800       0.19711600       0.57738700
    73  H          0.95989000       0.46975000       0.07719000
    74  H          0.54011000       0.96975000       0.42281000
    75  H          0.04011000       0.53025000       0.92281000
    76  H          0.45989000       0.03025000       0.57719000
    77  H          0.77827500       0.41782300       0.02367700
    78  H          0.72172500       0.91782300       0.47632300
    79  H          0.22172500       0.58217700       0.97632300
    80  H          0.27827500       0.08217700       0.52367700
