data_ATAHUB
_symmetry_space_group_name_H-M    'P1'
_symmetry_Int_Tables_number       1
loop_
_symmetry_equiv_pos_site_id
_symmetry_equiv_pos_as_xyz
1 x,y,z
_cell_length_a                   5.52744
_cell_length_b                   7.52855
_cell_length_c                   12.08387
_cell_angle_alpha                85.0885
_cell_angle_beta                 76.9865
_cell_angle_gamma                73.1206
loop_
_atom_site_label
_atom_site_type_symbol
_atom_site_fract_x
_atom_site_fract_y
_atom_site_fract_z
     1  I          0.57082300       0.70148300       0.82041200
     2  I          0.42917700       0.29851700       0.17958800
     3  F          0.82173000       0.87532000       0.98487150
     4  F          0.17827000       0.12468000       0.01512850
     5  F          0.15413000       0.72282000       0.11790140
     6  F          0.84587000       0.27718000       0.88209860
     7  C          0.82455000       0.58154000       0.92882000
     8  C          0.17545000       0.41846000       0.07118000
     9  C          0.90735000       0.68974000      -0.00858000
    10  C          0.09265000       0.31026000       0.00858000
    11  C          0.07755000       0.60964000       0.06132000
    12  C          0.92245000       0.39036000       0.93868000
    13  S          0.20226130       0.87192100       0.64194600
    14  S          0.79773870       0.12807900       0.35805400
    15  S          0.71211140       0.65618110       0.50684600
    16  S          0.28788860       0.34381890       0.49315400
    17  N          0.34024000       0.83873000       0.41616190
    18  N          0.65976000       0.16127000       0.58383810
    19  H          0.19197800       0.91191200       0.40983500
    20  H          0.80802200       0.08808800       0.59016500
    21  C          0.39895000       0.79824000       0.51652000
    22  C          0.60105000       0.20176000       0.48348000
    23  C          0.77246000       0.64264000       0.35412000
    24  C          0.22754000       0.35736000       0.64588000
    25  H          0.91759000       0.69034500       0.31906600
    26  H          0.08241000       0.30965500       0.68093400
    27  H          0.81280700       0.51462000       0.33214300
    28  H          0.18719300       0.48538000       0.66785700
    29  C          0.52915000       0.75834000       0.31602000
    30  C          0.47085000       0.24166000       0.68398000
    31  H          0.56791100       0.85579900       0.26321800
    32  H          0.43208900       0.14420100       0.73678200
    33  H          0.46132600       0.68084100       0.27803100
    34  H          0.53867400       0.31915900       0.72196900
