data_ATAJEN
_symmetry_space_group_name_H-M    'P1'
_symmetry_Int_Tables_number       1
loop_
_symmetry_equiv_pos_site_id
_symmetry_equiv_pos_as_xyz
1 x,y,z
_cell_length_a                   12.95913
_cell_length_b                   5.640101
_cell_length_c                   22.24705
_cell_angle_alpha                90.0
_cell_angle_beta                 98.4562
_cell_angle_gamma                90.0
loop_
_atom_site_label
_atom_site_type_symbol
_atom_site_fract_x
_atom_site_fract_y
_atom_site_fract_z
     1  I          0.77419200       0.71122300       0.55244200
     2  I          0.72580800       0.21122300       0.94755800
     3  I          0.22580800       0.28877700       0.44755800
     4  I          0.27419200       0.78877700       0.05244200
     5  F          0.01141110       0.89713000       0.56956700
     6  F          0.48858890       0.39713000       0.93043300
     7  F         -0.01141110       0.10287000       0.43043300
     8  F          0.51141110       0.60287000       0.06956700
     9  F          0.81882110       0.25802000       0.47202700
    10  F          0.68117890       0.75802000       0.02797300
    11  F          0.18117890       0.74198000       0.52797300
    12  F          0.31882110       0.24198000       0.97202700
    13  C          0.90961180       0.58234000       0.52200100
    14  C          0.59038820       0.08234000       0.97799900
    15  C          0.09038820       0.41766000       0.47799900
    16  C          0.40961180       0.91766000       0.02200100
    17  C          0.00388190       0.69944000       0.53507110
    18  C          0.49611810       0.19944000       0.96492890
    19  C         -0.00388190       0.30056000       0.46492890
    20  C          0.50388190       0.80056000       0.03507110
    21  C          0.90821180       0.38134000       0.48653100
    22  C          0.59178820       0.88134000       0.01346900
    23  C          0.09178820       0.61866000       0.51346900
    24  C          0.40821180       0.11866000       0.98653100
    25  S          0.41299400       0.01444110       0.40460300
    26  S          0.08700600       0.51444110       0.09539700
    27  S          0.58700600      -0.01444110       0.59539700
    28  S          0.91299400       0.48555890       0.90460300
    29  N          0.53687150       0.30983000       0.35403800
    30  N          0.96312850       0.80983000       0.14596200
    31  N          0.46312850       0.69017000       0.64596200
    32  N          0.03687150       0.19017000       0.85403800
    33  N          0.58624160       0.22464000       0.45529900
    34  N          0.91375840       0.72464000       0.04470100
    35  N          0.41375840       0.77536000       0.54470100
    36  N          0.08624160       0.27536000       0.95529900
    37  H          0.64015900       0.31295100       0.45470300
    38  H          0.85984100       0.81295100       0.04529700
    39  H          0.35984100       0.68704900       0.54529700
    40  H          0.14015900       0.18704900       0.95470300
    41  H          0.57650200       0.15477600       0.48836100
    42  H          0.92349800       0.65477600       0.01163900
    43  H          0.42349800       0.84522400       0.51163900
    44  H          0.07650200       0.34522400       0.98836100
    45  C          0.51812180       0.19594000       0.40519100
    46  C          0.98187820       0.69594000       0.09480900
    47  C          0.48187820       0.80406000       0.59480900
    48  C          0.01812180       0.30406000       0.90519100
    49  C          0.46681180       0.28904000       0.29747100
    50  C          0.03318820       0.78904000       0.20252900
    51  C          0.53318820       0.71096000       0.70252900
    52  C          0.96681180       0.21096000       0.79747100
    53  C          0.47258180       0.09214000       0.26062100
    54  C          0.02741820       0.59214000       0.23937900
    55  C          0.52741820       0.90786000       0.73937900
    56  C          0.97258180       0.40786000       0.76062100
    57  H          0.51808700       0.96855600       0.27337200
    58  H          0.98191300       0.46855600       0.22662800
    59  H          0.48191300       0.03144400       0.72662800
    60  H          0.01808700       0.53144400       0.77337200
    61  C          0.40979190       0.08204000       0.20468100
    62  C          0.09020810       0.58204000       0.29531900
    63  C          0.59020810       0.91796000       0.79531900
    64  C          0.90979190       0.41796000       0.70468100
    65  H          0.41354900       0.95126500       0.17960200
    66  H          0.08645100       0.45126500       0.32039800
    67  H          0.58645100       0.04873500       0.82039800
    68  H          0.91354900       0.54873500       0.67960200
    69  C          0.34152000       0.26494000       0.18579110
    70  C          0.15848000       0.76494000       0.31420890
    71  C          0.65848000       0.73506000       0.81420890
    72  C          0.84152000       0.23506000       0.68579110
    73  H          0.30012900       0.25769100       0.14794800
    74  H          0.19987100       0.75769100       0.35205200
    75  H          0.69987100       0.74230900       0.85205200
    76  H          0.80012900       0.24230900       0.64794800
    77  C          0.33467190       0.45904000       0.22332110
    78  C          0.16532810       0.95904000       0.27667890
    79  C          0.66532810       0.54096000       0.77667890
    80  C          0.83467190       0.04096000       0.72332110
    81  H          0.28757600       0.58020400       0.21107100
    82  H          0.21242400       0.08020400       0.28892900
    83  H          0.71242400       0.41979600       0.78892900
    84  H          0.78757600       0.91979600       0.71107100
    85  C          0.39837190       0.47214000       0.27928110
    86  C          0.10162810       0.97214000       0.22071890
    87  C          0.60162810       0.52786000       0.72071890
    88  C          0.89837190       0.02786000       0.77928110
    89  H          0.39495400       0.60314200       0.30429400
    90  H          0.10504600       0.10314200       0.19570600
    91  H          0.60504600       0.39685800       0.69570600
    92  H          0.89495400       0.89685800       0.80429400
    93  C          0.63333180       0.43744000       0.35192100
    94  C          0.86666820       0.93744000       0.14807900
    95  C          0.36666820       0.56256000       0.64807900
    96  C          0.13333180       0.06256000       0.85192100
    97  C          0.70742190       0.33824000       0.32052100
    98  C          0.79257810       0.83824000       0.17947900
    99  C          0.29257810       0.66176000       0.67947900
   100  C          0.20742190       0.16176000       0.82052100
   101  H          0.69421000       0.19425100       0.30046200
   102  H          0.80579000       0.69425100       0.19953800
   103  H          0.30579000       0.80574900       0.69953800
   104  H          0.19421000       0.30574900       0.80046200
   105  C          0.80132000       0.45435000       0.31913110
   106  C          0.69868000       0.95435000       0.18086890
   107  C          0.19868000       0.54565000       0.68086890
   108  C          0.30132000       0.04565000       0.81913110
   109  H          0.85130400       0.38763700       0.29827200
   110  H          0.64869600       0.88763700       0.20172800
   111  H          0.14869600       0.61236300       0.70172800
   112  H          0.35130400       0.11236300       0.79827200
   113  C          0.82092000       0.66955000       0.34872110
   114  C          0.67908000       0.16955000       0.15127890
   115  C          0.17908000       0.33045000       0.65127890
   116  C          0.32092000       0.83045000       0.84872110
   117  H          0.88397000       0.74724900       0.34782900
   118  H          0.61603000       0.24724900       0.15217100
   119  H          0.11603000       0.25275100       0.65217100
   120  H          0.38397000       0.75275100       0.84782900
   121  C          0.74622000       0.76764000       0.37954110
   122  C          0.75378000       0.26764000       0.12045890
   123  C          0.25378000       0.23236000       0.62045890
   124  C          0.24622000       0.73236000       0.87954110
   125  H          0.75930200       0.91186300       0.39944700
   126  H          0.74069800       0.41186300       0.10055300
   127  H          0.24069800       0.08813700       0.60055300
   128  H          0.25930200       0.58813700       0.89944700
   129  C          0.65182190       0.65294000       0.38108100
   130  C          0.84817810       0.15294000       0.11891900
   131  C          0.34817810       0.34706000       0.61891900
   132  C          0.15182190       0.84706000       0.88108100
   133  H          0.60151000       0.72044300       0.40154500
   134  H          0.89849000       0.22044300       0.09845500
   135  H          0.39849000       0.27955700       0.59845500
   136  H          0.10151000       0.77955700       0.90154500
