data_ATAKEO
_symmetry_space_group_name_H-M    'P1'
_symmetry_Int_Tables_number       1
loop_
_symmetry_equiv_pos_site_id
_symmetry_equiv_pos_as_xyz
1 x,y,z
_cell_length_a                   6.10753
_cell_length_b                   9.64206
_cell_length_c                   13.88708
_cell_angle_alpha                97.8565
_cell_angle_beta                 95.6704
_cell_angle_gamma                99.4495
loop_
_atom_site_label
_atom_site_type_symbol
_atom_site_fract_x
_atom_site_fract_y
_atom_site_fract_z
     1  I          0.42889500       0.00010400       0.68562200
     2  I          0.57110500      -0.00010400       0.31437800
     3  F          0.27695000       0.80803000       0.47652000
     4  F          0.72305000       0.19197000       0.52348000
     5  F          0.05295000       0.19463000       0.66552000
     6  F          0.94705000       0.80537000       0.33448000
     7  C          0.17567000       0.00186000       0.57403000
     8  C          0.82433000      -0.00186000       0.42597000
     9  C          0.03018000       0.09696000       0.58413000
    10  C          0.96982000       0.90304000       0.41587000
    11  C          0.14368000       0.90386000       0.48893000
    12  C          0.85632000       0.09614000       0.51107000
    13  I          0.15146600       0.28382400       0.30461300
    14  I          0.84853400       0.71617600       0.69538700
    15  F          0.64025000       0.62854000       0.47032000
    16  F          0.35975000       0.37146000       0.52968000
    17  F          0.76495000       0.46854000       0.31942000
    18  F          0.23505000       0.53146000       0.68058000
    19  C          0.06528000       0.41606000       0.42034000
    20  C          0.93472000       0.58394000       0.57966000
    21  C          0.88429000       0.48276000       0.40874000
    22  C          0.11571000       0.51724000       0.59126000
    23  C          0.81868000       0.56526000       0.48634000
    24  C          0.18132000       0.43474000       0.51366000
    25  S          0.78552000       0.97500150       0.86911100
    26  S          0.21448000       0.02499850       0.13088900
    27  F          0.42466000       0.59434000       0.20112000
    28  F          0.57534000       0.40566000       0.79888000
    29  F          0.11176000       0.64374000       0.14253000
    30  F          0.88824000       0.35626000       0.85747000
    31  F          0.23205000       0.46384000       0.07422000
    32  F          0.76795000       0.53616000       0.92578000
    33  N          0.72886000       0.85054000       0.02663000
    34  N          0.27114000       0.14946000       0.97337000
    35  H          0.86014000       0.89842900       0.04815200
    36  H          0.13986000       0.10157100       0.95184800
    37  C          0.63838000       0.86585000       0.93487000
    38  C          0.36162000       0.13415000       0.06513000
    39  C          0.42398000       0.78486000       0.90296000
    40  C          0.57602000       0.21514000       0.09704000
    41  H          0.35393800       0.78917100       0.84119700
    42  H          0.64606200       0.21082900       0.15880300
    43  C          0.31778000       0.70046000       0.96066000
    44  C          0.68222000       0.29954000       0.03934000
    45  H          0.17575500       0.64798100       0.93802800
    46  H          0.82424500       0.35201900       0.06197200
    47  C          0.41958000       0.69105000       0.05503000
    48  C          0.58042000       0.30895000       0.94497000
    49  C          0.62918000       0.76715000       0.08533000
    50  C          0.37082000       0.23285000       0.91467000
    51  H          0.70244900       0.76133300       0.14615000
    52  H          0.29755100       0.23866700       0.85385000
    53  C          0.29718000       0.60026000       0.11884000
    54  C          0.70282000       0.39974000       0.88116000
