data_ATAVOI
_symmetry_space_group_name_H-M    'P1'
_symmetry_Int_Tables_number       1
loop_
_symmetry_equiv_pos_site_id
_symmetry_equiv_pos_as_xyz
1 x,y,z
_cell_length_a                   9.2322
_cell_length_b                   10.4483
_cell_length_c                   12.0073
_cell_angle_alpha                87.6563
_cell_angle_beta                 88.8103
_cell_angle_gamma                75.9053
loop_
_atom_site_label
_atom_site_type_symbol
_atom_site_fract_x
_atom_site_fract_y
_atom_site_fract_z
     1  Cl         0.59937500       0.80743400       0.96674400
     2  Cl         0.40062500       0.19256600       0.03325600
     3  Cl         0.59627500       0.43169400       0.83373400
     4  Cl         0.40372500       0.56830600       0.16626600
     5  C          0.65838000       0.55605180       0.90480150
     6  C          0.34162000       0.44394820       0.09519850
     7  C          0.53678000       0.68180170       0.89759150
     8  C          0.46322000       0.31819830       0.10240850
     9  H          0.44070000       0.67230000       0.93320000
    10  H          0.55930000       0.32770000       0.06680000
    11  H          0.51470000       0.71620000       0.82221900
    12  H          0.48530000       0.28380000       0.17778100
    13  H          0.68070000       0.52230000       0.98420000
    14  H          0.31930000       0.47770000       0.01580000
    15  H          0.75070000       0.56830000       0.87020000
    16  H          0.24930000       0.43170000       0.12980000
    17  F          0.17820120       0.37599100       0.67864100
    18  F          0.82179880       0.62400900       0.32135900
    19  F          0.27856110       0.53916100       0.69874900
    20  F          0.72143890       0.46083900       0.30125100
    21  F          0.16877120       0.46539100       0.83821800
    22  F          0.83122880       0.53460900       0.16178200
    23  O          0.52423870       0.64607120       0.55009110
    24  O          0.47576130       0.35392880       0.44990890
    25  O          0.13309130       0.90703110       0.21899900
    26  O          0.86690870       0.09296890       0.78100100
    27  O          0.68449860       0.44685120       0.54002100
    28  O          0.31550140       0.55314880       0.45997900
    29  O          0.44260140       0.09322120       0.62606100
    30  O          0.55739860       0.90677880       0.37393900
    31  N          0.08840150       0.76759130       0.78448110
    32  N          0.91159850       0.23240870       0.21551890
    33  C          0.76768830       0.62168150       0.61770130
    34  C          0.23231170       0.37831850       0.38229870
    35  C          0.22900160       0.91578140       0.81304120
    36  C          0.77099840       0.08421860       0.18695880
    37  C          0.01235170       0.73587150       0.98499130
    38  C          0.98764830       0.26412850       0.01500870
    39  C          0.84240810       0.80107160       0.70111140
    40  C          0.15759190       0.19892840       0.29888860
    41  C          0.11522170       0.86269140       0.11449120
    42  C          0.88477830       0.13730860       0.88550880
    43  C          0.29638190       0.94533160       0.58835130
    44  C          0.70361810       0.05466840       0.41164870
    45  C          0.08469160       0.78924140       0.89929120
    46  C          0.91530840       0.21075860       0.10070880
    47  C          0.90699830       0.53816150       0.64183130
    48  C          0.09300170       0.46183850       0.35816870
    49  C          0.02806170       0.77373150       0.09353130
    50  C          0.97193830       0.22626850       0.90646870
    51  C          0.65239830       0.56625150       0.56498130
    52  C          0.34760170       0.43374850       0.43501870
    53  C          0.17297160       0.87887140       0.91996120
    54  C          0.82702840       0.12112860       0.08003880
    55  C          0.98052830       0.71753150       0.72738120
    56  C          0.01947170       0.28246850       0.27261880
    57  C          0.20594180       0.86155160       0.61892130
    58  C          0.79405820       0.13844840       0.38107870
    59  C          0.18906170       0.91507150       0.02893130
    60  C          0.81093830       0.08492850       0.97106870
    61  C          0.01323170       0.58544150       0.69691120
    62  C          0.98676830       0.41455850       0.30308880
    63  C          0.32101170       0.00048150       0.78146130
    64  C          0.67898830      -0.00048150       0.21853870
    65  C          0.17283160       0.84772150       0.73188130
    66  C          0.82716840       0.15227850       0.26811870
    67  C          0.07782000       0.84414170       0.31238130
    68  C          0.92218000       0.15585830       0.68761870
    69  C          0.35355170       0.01409160       0.66866130
    70  C          0.64644830       0.98590840       0.33133870
    71  C          0.73612820       0.75397160       0.64605140
    72  C          0.26387180       0.24602840       0.35394860
    73  C          0.16024180       0.49220160       0.72749140
    74  C          0.83975820       0.50779840       0.27250860
    75  C          0.50802000       0.16068180       0.70433150
    76  C          0.49198000       0.83931820       0.29566850
    77  H          0.92570000       0.44920000       0.62071700
    78  H          0.07430000       0.55080000       0.37928300
    79  H          0.82170000       0.88930000       0.72031900
    80  H          0.17830000       0.11070000       0.27968100
    81  H          0.64170000       0.81030000       0.63101900
    82  H          0.35830000       0.18970000       0.36898100
    83  H          0.95470000       0.67520000       0.97221800
    84  H          0.04530000       0.32480000       0.02778200
    85  H          0.97570000       0.73830000       0.15420000
    86  H          0.02430000       0.26170000       0.84580000
    87  H          0.24930000       0.97220000       0.04621700
    88  H          0.75070000       0.02780000       0.95378300
    89  H          0.09830000       0.88630000       0.37520000
    90  H          0.90170000       0.11370000       0.62480000
    91  H          0.97070000       0.85320000       0.30521700
    92  H          0.02930000       0.14680000       0.69478300
    93  H          0.13130000       0.75330000       0.31621900
    94  H          0.86870000       0.24670000       0.68378100
    95  H          0.43330000       0.21820000       0.74721800
    96  H          0.56670000       0.78180000       0.25278200
    97  H          0.36130000       0.04321900       0.83251700
    98  H          0.63870000       0.95678100       0.16748300
    99  H          0.56630000       0.09930000       0.75391900
   100  H          0.43370000       0.90070000       0.24608100
   101  H          0.56730000       0.20720000       0.66071800
   102  H          0.43270000       0.79280000       0.33928200
   103  H          0.31930000       0.95830000       0.51401900
   104  H          0.68070000       0.04170000       0.48598100
   105  H          0.58940000       0.39250000       0.50040000
   106  H          0.41060000       0.60750000       0.49960000
   107  H          0.17330000       0.81420000       0.56421700
   108  H          0.82670000       0.18580000       0.43578300
