data_ATAYIG
_symmetry_space_group_name_H-M    'P1'
_symmetry_Int_Tables_number       1
loop_
_symmetry_equiv_pos_site_id
_symmetry_equiv_pos_as_xyz
1 x,y,z
_cell_length_a                   18.8904
_cell_length_b                   8.493714
_cell_length_c                   10.643217
_cell_angle_alpha                90.0
_cell_angle_beta                 104.46413
_cell_angle_gamma                90.0
loop_
_atom_site_label
_atom_site_type_symbol
_atom_site_fract_x
_atom_site_fract_y
_atom_site_fract_z
     1  Cl         0.47442400       0.44735110       0.68464800
     2  Cl         0.52557600       0.94735110       0.81535200
     3  Cl         0.52557600       0.55264890       0.31535200
     4  Cl         0.47442400       0.05264890       0.18464800
     5  S          0.17442300       0.35627600       0.28185600
     6  S          0.82557700       0.85627600       0.21814400
     7  S          0.82557700       0.64372400       0.71814400
     8  S          0.17442300       0.14372400       0.78185600
     9  O          0.18330100       0.23698180       0.19161170
    10  O          0.81669900       0.73698180       0.30838830
    11  O          0.81669900       0.76301820       0.80838830
    12  O          0.18330100       0.26301820       0.69161170
    13  O          0.11921900       0.33791180       0.35150160
    14  O          0.88078100       0.83791180       0.14849840
    15  O          0.88078100       0.66208820       0.64849840
    16  O          0.11921900       0.16208820       0.85150160
    17  C          0.39129150       0.42233000       0.57243000
    18  C          0.60870850       0.92233000       0.92757000
    19  C          0.60870850       0.57767000       0.42757000
    20  C          0.39129150       0.07767000       0.07243000
    21  C          0.32856150       0.48263000       0.59852000
    22  C          0.67143850       0.98263000       0.90148000
    23  C          0.67143850       0.51737000       0.40148000
    24  C          0.32856150       0.01737000       0.09852000
    25  H          0.33101900       0.53813700       0.67689700
    26  H          0.66898100       0.03813700       0.82310300
    27  H          0.66898100       0.46186300       0.32310300
    28  H          0.33101900       0.96186300       0.17689700
    29  C          0.26213140       0.46122000       0.50942000
    30  C          0.73786860       0.96122000      -0.00942000
    31  C          0.73786860       0.53878000       0.49058000
    32  C          0.26213140       0.03878000       0.00942000
    33  H          0.21868800       0.50292400       0.52595800
    34  H          0.78131200       0.00292400       0.97404200
    35  H          0.78131200       0.49707600       0.47404200
    36  H          0.21868800      -0.00292400       0.02595800
    37  C          0.25911130       0.37832000       0.39512000
    38  C          0.74088870       0.87832000       0.10488000
    39  C          0.74088870       0.62168000       0.60488000
    40  C          0.25911130       0.12168000       0.89512000
    41  N          0.15796110       0.52452000       0.21019190
    42  N          0.84203890       0.02452000       0.28980810
    43  N          0.84203890       0.47548000       0.78980810
    44  N          0.15796110       0.97548000       0.71019190
    45  C          0.20136130       0.59863000       0.13752000
    46  C          0.79863870       0.09863000       0.36248000
    47  C          0.79863870       0.40137000       0.86248000
    48  C          0.20136130       0.90137000       0.63752000
    49  N          0.23318120       0.50333000       0.06762000
    50  N          0.76681880       0.00333000       0.43238000
    51  N          0.76681880       0.49667000       0.93238000
    52  N          0.23318120      -0.00333000       0.56762000
    53  C          0.27893140       0.56633000      -0.01232000
    54  C          0.72106860       0.06633000       0.51232000
    55  C          0.72106860       0.43367000       0.01232000
    56  C          0.27893140       0.93367000       0.48768000
    57  H          0.26016000       0.67110700       0.95445500
    58  H          0.73984000       0.17110700       0.54554500
    59  H          0.73984000       0.32889300       0.04554500
    60  H          0.26016000       0.82889300       0.45445500
    61  H          0.27569400       0.49622400       0.91216900
    62  H          0.72430600      -0.00377600       0.58783100
    63  H          0.72430600       0.50377600       0.08783100
    64  H          0.27569400       0.00377600       0.41216900
    65  C          0.35768150       0.58173000       0.06133000
    66  C          0.64231850       0.08173000       0.43867000
    67  C          0.64231850       0.41827000       0.93867000
    68  C          0.35768150       0.91827000       0.56133000
    69  H          0.37632200       0.47720400       0.09545600
    70  H          0.62367800       0.97720400       0.40454400
    71  H          0.62367800       0.52279600       0.90454400
    72  H          0.37632200       0.02279600       0.59545600
    73  H          0.36103200       0.65295800       0.13616300
    74  H          0.63896800       0.15295800       0.36383700
    75  H          0.63896800       0.34704200       0.86383700
    76  H          0.36103200       0.84704200       0.63616300
    77  C          0.40554170       0.64604000       0.97647000
    78  C          0.59445830       0.14604000       0.52353000
    79  C          0.59445830       0.35396000       0.02353000
    80  C          0.40554170       0.85396000       0.47647000
    81  H          0.40480500       0.57247500       0.90522700
    82  H          0.59519500       0.07247500       0.59477300
    83  H          0.59519500       0.42752500       0.09477300
    84  H          0.40480500       0.92752500       0.40522700
    85  H          0.45583200       0.65821800       0.02902100
    86  H          0.54416800       0.15821800       0.47097900
    87  H          0.54416800       0.34178200       0.97097900
    88  H          0.45583200       0.84178200       0.52902100
    89  H          0.38666800       0.74844600       0.94095800
    90  H          0.61333200       0.24844600       0.55904200
    91  H          0.61333200       0.25155400       0.05904200
    92  H          0.38666800       0.75155400       0.44095800
    93  C          0.38886160       0.34073000       0.45833000
    94  C          0.61113840       0.84073000       0.04167000
    95  C          0.61113840       0.65927000       0.54167000
    96  C          0.38886160       0.15927000       0.95833000
    97  H          0.43245500       0.29993300       0.44159200
    98  H          0.56754500       0.79993300       0.05840800
    99  H          0.56754500       0.70006700       0.55840800
   100  H          0.43245500       0.20006700       0.94159200
   101  C          0.32256150       0.31943000       0.36933000
   102  C          0.67743850       0.81943000       0.13067000
   103  C          0.67743850       0.68057000       0.63067000
   104  C          0.32256150       0.18057000       0.86933000
   105  H          0.32035600       0.26454200       0.29058600
   106  H          0.67964400       0.76454200       0.20941400
   107  H          0.67964400       0.73545800       0.70941400
   108  H          0.32035600       0.23545800       0.79058600
   109  O          0.20656100       0.74191180       0.13947170
   110  O          0.79343900       0.24191180       0.36052830
   111  O          0.79343900       0.25808820       0.86052830
   112  O          0.20656100       0.75808820       0.63947170
   113  H          0.13511600       0.58130000       0.24730000
   114  H          0.86488400       0.08130000       0.25270000
   115  H          0.86488400       0.41870000       0.75270000
   116  H          0.13511600       0.91870000       0.74730000
   117  H          0.22161400       0.41230000       0.06120000
   118  H          0.77838600       0.91230000       0.43880000
   119  H          0.77838600       0.58770000       0.93880000
   120  H          0.22161400       0.08770000       0.56120000
   121  N          0.08259110       0.77692000       0.83132810
   122  N          0.91740890       0.27692000       0.66867190
   123  N          0.91740890       0.22308000       0.16867190
   124  N          0.08259110       0.72308000       0.33132810
   125  C          0.08810140       0.62233000       0.81388000
   126  C          0.91189860       0.12233000       0.68612000
   127  C          0.91189860       0.37767000       0.18612000
   128  C          0.08810140       0.87767000       0.31388000
   129  H          0.11521500       0.58677900       0.75526000
   130  H          0.88478500       0.08677900       0.74474000
   131  H          0.88478500       0.41322100       0.24474000
   132  H          0.11521500       0.91322100       0.25526000
   133  C          0.05621130       0.51153000       0.87718000
   134  C          0.94378870       0.01153000       0.62282000
   135  C          0.94378870       0.48847000       0.12282000
   136  C          0.05621130      -0.01153000       0.37718000
   137  H          0.06154100       0.40261100       0.86135300
   138  H          0.93845900       0.90261100       0.63864700
   139  H          0.93845900       0.59738900       0.13864700
   140  H          0.06154100       0.09738900       0.36135300
   141  C          0.01650120       0.55852000       0.96368000
   142  C          0.98349880       0.05852000       0.53632000
   143  C          0.98349880       0.44148000       0.03632000
   144  C          0.01650120       0.94148000       0.46368000
   145  C          0.04350140       0.82293000       0.91308000
   146  C          0.95649860       0.32293000       0.58692000
   147  C          0.95649860       0.17707000       0.08692000
   148  C          0.04350140       0.67707000       0.41308000
   149  H          0.03855600       0.93260200       0.92609400
   150  H          0.96144400       0.43260200       0.57390600
   151  H          0.96144400       0.06739800       0.07390600
   152  H          0.03855600       0.56739800       0.42609400
   153  C          0.00982140       0.71982000       0.97998000
   154  C          0.99017860       0.21982000       0.52002000
   155  C          0.99017860       0.28018000       0.02002000
   156  C          0.00982140       0.78018000       0.47998000
   157  H          0.98225000       0.75872400       0.03670500
   158  H          0.01775000       0.25872400       0.46329500
   159  H          0.01775000       0.24127600       0.96329500
   160  H          0.98225000       0.74127600       0.53670500
