data_AVACUY
_symmetry_space_group_name_H-M    'P1'
_symmetry_Int_Tables_number       1
loop_
_symmetry_equiv_pos_site_id
_symmetry_equiv_pos_as_xyz
1 x,y,z
_cell_length_a                   7.53014
_cell_length_b                   7.69734
_cell_length_c                   16.03278
_cell_angle_alpha                76.7694
_cell_angle_beta                 77.7765
_cell_angle_gamma                70.1225
loop_
_atom_site_label
_atom_site_type_symbol
_atom_site_fract_x
_atom_site_fract_y
_atom_site_fract_z
     1  P          0.00000000       0.50000000      -0.00000000
     2  F          0.98888000       0.49672000       0.90173900
     3  F          0.01112000       0.50328000       0.09826100
     4  F          0.21582000       0.50512000       0.97235110
     5  F          0.78418000       0.49488000       0.02764890
     6  F          0.07562000       0.27423190       0.01936900
     7  F          0.92438000       0.72576810       0.98063100
     8  S          0.02853800       0.38185800       0.71064400
     9  S          0.97146200       0.61814200       0.28935600
    10  S          0.17398800       0.07165800       0.61269400
    11  S          0.82601200       0.92834200       0.38730600
    12  S          0.16651800       0.65891800       0.54851400
    13  S          0.83348200       0.34108200       0.45148600
    14  S          0.32150800       0.34964800       0.44488400
    15  S          0.67849200       0.65035200       0.55511600
    16  S          0.33032800       0.91686800       0.40146400
    17  S          0.66967200       0.08313200       0.59853600
    18  S          0.48757800       0.60784800       0.29622400
    19  S          0.51242200       0.39215200       0.70377600
    20  S          0.46002800       0.20183800       0.23995400
    21  S          0.53997200       0.79816200       0.76004600
    22  S          0.59676900       0.90634900       0.13042400
    23  S          0.40323100       0.09365100       0.86957600
    24  C          0.88387000       0.16593000       0.85427150
    25  C          0.11613000       0.83407000       0.14572850
    26  H          0.96124600       0.18389600       0.89172200
    27  H          0.03875400       0.81610400       0.10827800
    28  H          0.86003100       0.04474900       0.87555600
    29  H          0.13996900       0.95525100       0.12444400
    30  H          0.76196900       0.26672300       0.85481500
    31  H          0.23803100       0.73327700       0.14518500
    32  C          0.03803000       0.83247000       0.74900150
    33  C          0.96197000       0.16753000       0.25099850
    34  H          0.16323800       0.73993500       0.73744400
    35  H          0.83676200       0.26006500       0.26255600
    36  H          0.94758100       0.81562600       0.71803000
    37  H          0.05241900       0.18437400       0.28197000
    38  H         -0.00790300       0.81534500       0.81134600
    39  H          0.00790300       0.18465500       0.18865400
    40  C          0.98887000       0.16943000       0.76322140
    41  C          0.01113000       0.83057000       0.23677860
    42  C          0.05533000       0.02713000       0.71854140
    43  C          0.94467000       0.97287000       0.28145860
    44  C          0.14243000       0.30633000       0.61312140
    45  C          0.85757000       0.69367000       0.38687860
    46  C          0.20463000       0.42283000       0.54374140
    47  C          0.79537000       0.57717000       0.45625860
    48  C          0.28893000       0.70293000       0.44582140
    49  C          0.71107000       0.29707000       0.55417860
    50  C          0.35813000       0.56413000       0.39805140
    51  C          0.64187000       0.43587000       0.60194860
    52  C          0.44183000       0.84643000       0.30061150
    53  C          0.55817000       0.15357000       0.69938850
    54  C          0.49173000       0.96953000       0.23207150
    55  C          0.50827000       0.03047000       0.76792850
    56  C          0.47814000       0.28304000       0.12438170
    57  C          0.52186000       0.71696000       0.87561830
    58  H          0.35408300       0.30830200       0.10487800
    59  H          0.64591700       0.69169800       0.89512200
    60  H          0.51309800       0.40041300       0.10943000
    61  H          0.48690200       0.59958700       0.89057000
    62  C          0.62924000       0.13254000       0.08073170
    63  C          0.37076000       0.86746000       0.91926830
    64  H          0.75738900       0.13241900       0.08676900
    65  H          0.24261100       0.86758100       0.91323100
    66  H          0.61952700       0.15712900       0.01822600
    67  H          0.38047300       0.84287100       0.98177400
