data_AVAGUC
_symmetry_space_group_name_H-M    'P1'
_symmetry_Int_Tables_number       1
loop_
_symmetry_equiv_pos_site_id
_symmetry_equiv_pos_as_xyz
1 x,y,z
_cell_length_a                   27.677511
_cell_length_b                   6.89673
_cell_length_c                   12.55405
_cell_angle_alpha                90.0
_cell_angle_beta                 90.0
_cell_angle_gamma                90.0
loop_
_atom_site_label
_atom_site_type_symbol
_atom_site_fract_x
_atom_site_fract_y
_atom_site_fract_z
     1  Cl         0.25000000       0.75000000       0.54767700
     2  Cl         0.75000000       0.25000000       0.95232300
     3  Cl         0.75000000       0.25000000       0.45232300
     4  Cl         0.25000000       0.75000000       0.04767700
     5  O          0.22962800       0.60294000       0.61252000
     6  O          0.27037200       0.89706000       0.61252000
     7  O          0.72962800       0.39706000       0.88748000
     8  O          0.77037200       0.10294000       0.88748000
     9  O          0.77037200       0.39706000       0.38748000
    10  O          0.72962800       0.10294000       0.38748000
    11  O          0.27037200       0.60294000       0.11252000
    12  O          0.22962800       0.89706000       0.11252000
    13  O          0.28664800       0.66943000       0.48254180
    14  O          0.21335200       0.83057000       0.48254180
    15  O          0.78664800       0.33057000       0.01745820
    16  O          0.71335200       0.16943000       0.01745820
    17  O          0.71335200       0.33057000       0.51745820
    18  O          0.78664800       0.16943000       0.51745820
    19  O          0.21335200       0.66943000       0.98254180
    20  O          0.28664800       0.83057000       0.98254180
    21  S          0.44452200       0.12855900       0.15603400
    22  S          0.05547800       0.37144100       0.15603400
    23  S          0.94452200       0.87144100       0.34396600
    24  S          0.55547800       0.62855900       0.34396600
    25  S          0.55547800       0.87144100       0.84396600
    26  S          0.94452200       0.62855900       0.84396600
    27  S          0.05547800       0.12855900       0.65603400
    28  S          0.44452200       0.37144100       0.65603400
    29  S          0.46877200       0.13215800       0.38313400
    30  S          0.03122800       0.36784200       0.38313400
    31  S          0.96877200       0.86784200       0.11686600
    32  S          0.53122800       0.63215800       0.11686600
    33  S          0.53122800       0.86784200       0.61686600
    34  S          0.96877200       0.63215800       0.61686600
    35  S          0.03122800       0.13215800       0.88313400
    36  S          0.46877200       0.36784200       0.88313400
    37  S          0.33877200       0.11303100       0.18747500
    38  S          0.16122800       0.38696900       0.18747500
    39  S          0.83877200       0.88696900       0.31252500
    40  S          0.66122800       0.61303100       0.31252500
    41  S          0.66122800       0.88696900       0.81252500
    42  S          0.83877200       0.61303100       0.81252500
    43  S          0.16122800       0.11303100       0.68747500
    44  S          0.33877200       0.38696900       0.68747500
    45  S          0.36916200       0.12814100       0.46046500
    46  S          0.13083800       0.37185900       0.46046500
    47  S          0.86916200       0.87185900       0.03953500
    48  S          0.63083800       0.62814100       0.03953500
    49  S          0.63083800       0.87185900       0.53953500
    50  S          0.86916200       0.62814100       0.53953500
    51  S          0.13083800       0.12814100       0.96046500
    52  S          0.36916200       0.37185900       0.96046500
    53  O          0.63769600       0.11943000       0.18144140
    54  O          0.86230400       0.38057000       0.18144140
    55  O          0.13769600       0.88057000       0.31855860
    56  O          0.36230400       0.61943000       0.31855860
    57  O          0.36230400       0.88057000       0.81855860
    58  O          0.13769600       0.61943000       0.81855860
    59  O          0.86230400       0.11943000       0.68144140
    60  O          0.63769600       0.38057000       0.68144140
    61  C          0.60423800       0.12393000       0.10272000
    62  C          0.89576200       0.37607000       0.10272000
    63  C          0.10423800       0.87607000       0.39728000
    64  C          0.39576200       0.62393000       0.39728000
    65  C          0.39576200       0.87607000       0.89728000
    66  C          0.10423800       0.62393000       0.89728000
    67  C          0.89576200       0.12393000       0.60272000
    68  C          0.60423800       0.37607000       0.60272000
    69  H          0.61492100       0.12367800       0.03250500
    70  H          0.88507900       0.37632200       0.03250500
    71  H          0.11492100       0.87632200       0.46749500
    72  H          0.38507900       0.62367800       0.46749500
    73  H          0.38507900       0.87632200       0.96749500
    74  H          0.11492100       0.62367800       0.96749500
    75  H          0.88507900       0.12367800       0.53250500
    76  H          0.61492100       0.37632200       0.53250500
    77  C          0.62178800       0.12123000       0.28412000
    78  C          0.87821200       0.37877000       0.28412000
    79  C          0.12178800       0.87877000       0.21588000
    80  C          0.37821200       0.62123000       0.21588000
    81  C          0.37821200       0.87877000       0.71588000
    82  C          0.12178800       0.62123000       0.71588000
    83  C          0.87821200       0.12123000       0.78412000
    84  C          0.62178800       0.37877000       0.78412000
    85  H          0.64451200       0.11895800       0.33860800
    86  H          0.85548800       0.38104200       0.33860800
    87  H          0.14451200       0.88104200       0.16139200
    88  H          0.35548800       0.61895800       0.16139200
    89  H          0.35548800       0.88104200       0.66139200
    90  H          0.14451200       0.61895800       0.66139200
    91  H          0.85548800       0.11895800       0.83860800
    92  H          0.64451200       0.38104200       0.83860800
    93  C          0.55675800       0.12863000       0.12074180
    94  C          0.94324200       0.37137000       0.12074180
    95  C          0.05675800       0.87137000       0.37925820
    96  C          0.44324200       0.62863000       0.37925820
    97  C          0.44324200       0.87137000       0.87925820
    98  C          0.05675800       0.62863000       0.87925820
    99  C          0.94324200       0.12863000       0.62074180
   100  C          0.55675800       0.37137000       0.62074180
   101  H          0.53535300       0.13182400       0.06365300
   102  H          0.96464700       0.36817600       0.06365300
   103  H          0.03535300       0.86817600       0.43634700
   104  H          0.46464700       0.63182400       0.43634700
   105  H          0.46464700       0.86817600       0.93634700
   106  H          0.03535300       0.63182400       0.93634700
   107  H          0.96464700       0.13182400       0.56365300
   108  H          0.53535300       0.36817600       0.56365300
   109  C          0.57502800       0.12603000       0.30983180
   110  C          0.92497200       0.37397000       0.30983180
   111  C          0.07502800       0.87397000       0.19016820
   112  C          0.42497200       0.62603000       0.19016820
   113  C          0.42497200       0.87397000       0.69016820
   114  C          0.07502800       0.62603000       0.69016820
   115  C          0.92497200       0.12603000       0.80983180
   116  C          0.57502800       0.37397000       0.80983180
   117  H          0.56602100       0.12752500       0.38120100
   118  H          0.93397900       0.37247500       0.38120100
   119  H          0.06602100       0.87247500       0.11879900
   120  H          0.43397900       0.62752500       0.11879900
   121  H          0.43397900       0.87247500       0.61879900
   122  H          0.06602100       0.62752500       0.61879900
   123  H          0.93397900       0.12752500       0.88120100
   124  H          0.56602100       0.37247500       0.88120100
   125  C          0.53837700       0.12883000       0.22859170
   126  C          0.96162300       0.37117000       0.22859170
   127  C          0.03837700       0.87117000       0.27140830
   128  C          0.46162300       0.62883000       0.27140830
   129  C          0.46162300       0.87117000       0.77140830
   130  C          0.03837700       0.62883000       0.77140830
   131  C          0.96162300       0.12883000       0.72859170
   132  C          0.53837700       0.37117000       0.72859170
   133  C          0.48966700       0.12933000       0.25236170
   134  C          0.01033300       0.37067000       0.25236170
   135  C          0.98966700       0.87067000       0.24763830
   136  C          0.51033300       0.62933000       0.24763830
   137  C          0.51033300       0.87067000       0.74763830
   138  C          0.98966700       0.62933000       0.74763830
   139  C          0.01033300       0.12933000       0.75236170
   140  C          0.48966700       0.37067000       0.75236170
   141  C          0.39599700       0.12643000       0.24578170
   142  C          0.10400300       0.37357000       0.24578170
   143  C          0.89599700       0.87357000       0.25421830
   144  C          0.60400300       0.62643000       0.25421830
   145  C          0.60400300       0.87357000       0.75421830
   146  C          0.89599700       0.62643000       0.75421830
   147  C          0.10400300       0.12643000       0.74578170
   148  C          0.39599700       0.37357000       0.74578170
   149  C          0.40744800       0.12983000       0.35011170
   150  C          0.09255200       0.37017000       0.35011170
   151  C          0.90744800       0.87017000       0.14988830
   152  C          0.59255200       0.62983000       0.14988830
   153  C          0.59255200       0.87017000       0.64988830
   154  C          0.90744800       0.62983000       0.64988830
   155  C          0.09255200       0.12983000       0.85011170
   156  C          0.40744800       0.37017000       0.85011170
   157  C          0.30209800       0.05034000       0.30194190
   158  C          0.19790200       0.44966000       0.30194190
   159  C          0.80209800       0.94966000       0.19805810
   160  C          0.69790200       0.55034000       0.19805810
   161  C          0.69790200       0.94966000       0.69805810
   162  C          0.80209800       0.55034000       0.69805810
   163  C          0.19790200       0.05034000       0.80194190
   164  C          0.30209800       0.44966000       0.80194190
   165  H          0.26827900       0.06120800       0.28252100
   166  H          0.23172100       0.43879200       0.28252100
   167  H          0.76827900       0.93879200       0.21747900
   168  H          0.73172100       0.56120800       0.21747900
   169  H          0.73172100       0.93879200       0.71747900
   170  H          0.76827900       0.56120800       0.71747900
   171  H          0.23172100       0.06120800       0.78252100
   172  H          0.26827900       0.43879200       0.78252100
   173  H          0.30822200       0.91612900       0.32074200
   174  H          0.19177800       0.58387100       0.32074200
   175  H          0.80822200       0.08387100       0.17925800
   176  H          0.69177800       0.41612900       0.17925800
   177  H          0.69177800       0.08387100       0.67925800
   178  H          0.80822200       0.41612900       0.67925800
   179  H          0.19177800       0.91612900       0.82074200
   180  H          0.30822200       0.58387100       0.82074200
   181  C          0.31151800       0.17654000       0.39872000
   182  C          0.18848200       0.32346000       0.39872000
   183  C          0.81151800       0.82346000       0.10128000
   184  C          0.68848200       0.67654000       0.10128000
   185  C          0.68848200       0.82346000       0.60128000
   186  C          0.81151800       0.67654000       0.60128000
   187  C          0.18848200       0.17654000       0.89872000
   188  C          0.31151800       0.32346000       0.89872000
   189  H          0.28607000       0.15527500       0.45050200
   190  H          0.21393000       0.34472500       0.45050200
   191  H          0.78607000       0.84472500       0.04949800
   192  H          0.71393000       0.65527500       0.04949800
   193  H          0.71393000       0.84472500       0.54949800
   194  H          0.78607000       0.65527500       0.54949800
   195  H          0.21393000       0.15527500       0.95050200
   196  H          0.28607000       0.34472500       0.95050200
   197  H          0.31033900       0.31167300       0.37741500
   198  H          0.18966100       0.18832700       0.37741500
   199  H          0.81033900       0.68832700       0.12258500
   200  H          0.68966100       0.81167300       0.12258500
   201  H          0.68966100       0.68832700       0.62258500
   202  H          0.81033900       0.81167300       0.62258500
   203  H          0.18966100       0.31167300       0.87741500
   204  H          0.31033900       0.18832700       0.87741500
