data_AVAJIQ
_symmetry_space_group_name_H-M    'P1'
_symmetry_Int_Tables_number       1
loop_
_symmetry_equiv_pos_site_id
_symmetry_equiv_pos_as_xyz
1 x,y,z
_cell_length_a                   9.042514
_cell_length_b                   9.21311
_cell_length_c                   23.5443
_cell_angle_alpha                90.96514
_cell_angle_beta                 95.79112
_cell_angle_gamma                95.60114
loop_
_atom_site_label
_atom_site_type_symbol
_atom_site_fract_x
_atom_site_fract_y
_atom_site_fract_z
     1  N          0.31879000       0.00188000       0.21953000
     2  N          0.68121000      -0.00188000       0.78047000
     3  C          0.30831200       0.13281000       0.18464000
     4  C          0.69168800       0.86719000       0.81536000
     5  H          0.23711200       0.10801000       0.15024000
     6  H          0.76288800       0.89199000       0.84976000
     7  H          0.40731200       0.16231000       0.17154000
     8  H          0.59268800       0.83769000       0.82846000
     9  C          0.25751100       0.26191000       0.21674000
    10  C          0.74248900       0.73809000       0.78326000
    11  C          0.29991100       0.28491000       0.27504000
    12  C          0.70008900       0.71509000       0.72496000
    13  H          0.35321100       0.21551000       0.29574000
    14  H          0.64678900       0.78449000       0.70426000
    15  C          0.26421200       0.41011000       0.30324000
    16  C          0.73578800       0.58989000       0.69676000
    17  C          0.18671200       0.51121000       0.27164000
    18  C          0.81328800       0.48879000       0.72836000
    19  H          0.16001200       0.59571000       0.29034000
    20  H          0.83998800       0.40429000       0.70966000
    21  C          0.14881200       0.48921100       0.21404000
    22  C          0.85118800       0.51078900       0.78596000
    23  H          0.09771200       0.55901100       0.19264000
    24  H          0.90228800       0.44098900       0.80736000
    25  C          0.18541200       0.36521100       0.18714000
    26  C          0.81458800       0.63478900       0.81286000
    27  H          0.15981200       0.35131100       0.14714000
    28  H          0.84018800       0.64868900       0.85286000
    29  C          0.30491100       0.44001000       0.36514000
    30  C          0.69508900       0.55999000       0.63486000
    31  O          0.31219000       0.56527000       0.38553000
    32  O          0.68781000       0.43473000       0.61447000
    33  N          0.33799000       0.32668000       0.39803000
    34  N          0.66201000       0.67332000       0.60197000
    35  H          0.30811000       0.24024900       0.38013400
    36  H          0.69189000       0.75975100       0.61986600
    37  C          0.37891100       0.35381000       0.45914000
    38  C          0.62108900       0.64619000       0.54086000
    39  H          0.44511100       0.44741000       0.46444000
    40  H          0.55488900       0.55259000       0.53556000
    41  C          0.46561100       0.23001000       0.48604000
    42  C          0.53438900       0.76999000       0.51396000
    43  H          0.50861100       0.17921000       0.45514000
    44  H          0.49138900       0.82079000       0.54486000
    45  H          0.55001100       0.27531000       0.51254000
    46  H          0.44998900       0.72469000       0.48746000
    47  C          0.37801100       0.11849000       0.51774000
    48  C          0.62198900       0.88151000       0.48226000
    49  C          0.40101200       0.11351100       0.57724000
    50  C          0.59898800       0.88648900       0.42276000
    51  H          0.47591200       0.18031100       0.59724000
    52  H          0.52408800       0.81968900       0.40276000
    53  C          0.31921400       0.01591200       0.60784000
    54  C          0.68078600       0.98408800       0.39216000
    55  H          0.33921400       0.01361200       0.64814000
    56  H          0.66078600      -0.01361200       0.35186000
    57  C          0.20701200       0.92028900       0.57944000
    58  C          0.79298800       0.07971100       0.42056000
    59  H          0.14751200       0.85468900       0.60054000
    60  H          0.85248800       0.14531100       0.39946000
    61  C          0.18091200       0.91988900       0.51994000
    62  C          0.81908800       0.08011100       0.48006000
    63  H          0.10501200       0.85348900       0.50024000
    64  H          0.89498800       0.14651100       0.49976000
    65  C          0.26741100       0.01781000       0.48994000
    66  C          0.73258900       0.98219000       0.51006000
    67  O          0.25347000       0.02077000       0.43123000
    68  O          0.74653000       0.97923000       0.56877000
    69  C          0.15241100       0.90899000       0.40124000
    70  C          0.84758900       0.09101000       0.59876000
    71  H          0.04861100       0.92199000       0.40864000
    72  H          0.95138900       0.07801000       0.59136000
    73  H          0.17601100       0.81199000       0.41494000
    74  H          0.82398900       0.18801000       0.58506000
    75  C          0.16701100       0.91779000       0.33844000
    76  C          0.83298900       0.08221000       0.66156000
    77  H          0.25931100       0.89939000       0.32514000
    78  H          0.74068900       0.10061000       0.67486000
    79  C          0.05851200       0.94958900       0.30114000
    80  C          0.94148800       0.05041100       0.69886000
    81  H          0.97108800       0.97748900       0.31594000
    82  H          0.02891200       0.02251100       0.68406000
    83  C          0.05831300       0.94658900       0.23874000
    84  C          0.94168700       0.05341100       0.76126000
    85  C          0.94018700       0.98328600       0.20575000
    86  C          0.05981300       0.01671400       0.79425000
    87  H          0.85588700       0.01161400       0.22255000
    88  H          0.14411300      -0.01161400       0.77745000
    89  H          0.94028700       0.98128600       0.16545000
    90  H          0.05971300       0.01871400       0.83455000
    91  C          0.18791100       0.89538900       0.21294000
    92  C          0.81208900       0.10461100       0.78706000
    93  H          0.21371100       0.80358900       0.23104000
    94  H          0.78628900       0.19641100       0.76896000
    95  H          0.15911100       0.87368900       0.17174000
    96  H          0.84088900       0.12631100       0.82826000
    97  S          0.48403000       0.94047000       0.22590900
    98  S          0.51597000       0.05953000       0.77409100
    99  O          0.47638000       0.82203000       0.26463000
   100  O          0.52362000       0.17797000       0.73537000
   101  O          0.59128000       0.06238000       0.23833000
   102  O          0.40872000       0.93762000       0.76167000
   103  C          0.50771100       0.86908900       0.15784000
   104  C          0.49228900       0.13091100       0.84216000
   105  C          0.58231200       0.95388800       0.12004000
   106  C          0.41768800       0.04611200       0.87996000
   107  H          0.63441200       0.04541200       0.13224000
   108  H          0.36558800       0.95458800       0.86776000
   109  C          0.58051600       0.90328600       0.06334000
   110  C          0.41948400       0.09671400       0.93666000
   111  H          0.62931600       0.96138600       0.03644000
   112  H          0.37068400       0.03861400       0.96356000
   113  C          0.50861400       0.77058800       0.04724000
   114  C          0.49138600       0.22941200       0.95276000
   115  I          0.49222000       0.70021100       0.96129700
   116  I          0.50778000       0.29978900       0.03870300
   117  C          0.43561500       0.68238800       0.08474000
   118  C          0.56438500       0.31761200       0.91526000
   119  H          0.38541500       0.59028800       0.07224000
   120  H          0.61458500       0.40971200       0.92776000
   121  C          0.43701200       0.73158900       0.14174000
   122  C          0.56298800       0.26841100       0.85826000
   123  H          0.39061200       0.67198900       0.16874000
   124  H          0.60938800       0.32801100       0.83126000
   125  C          0.23821100       0.37049000       0.48873000
   126  C          0.76178900       0.62951000       0.51127000
   127  O          0.11148000       0.33558000       0.46783000
   128  O          0.88852000       0.66442000       0.53217000
   129  O          0.27557000       0.42997000       0.54083000
   130  O          0.72443000       0.57003000       0.45917000
   131  C          0.14791200       0.43811400       0.57354000
   132  C          0.85208800       0.56188600       0.42646000
   133  H          0.09191200       0.34041400       0.57444000
   134  H          0.90808800       0.65958600       0.42556000
   135  H          0.07981200       0.50541400       0.55514000
   136  H          0.92018800       0.49458600       0.44486000
   137  C          0.20201200       0.49181000       0.63314000
   138  C          0.79798800       0.50819000       0.36686000
   139  C          0.32461300       0.44461300       0.66475000
   140  C          0.67538700       0.55538700       0.33525000
   141  H          0.38461300       0.38071300       0.64755000
   142  H          0.61538700       0.61928700       0.35245000
   143  C          0.35981200       0.48891200       0.71994000
   144  C          0.64018800       0.51108800       0.28006000
   145  H          0.44251200       0.45401200       0.74184000
   146  H          0.55748800       0.54598800       0.25816000
   147  C          0.27471200       0.58531000       0.74454000
   148  C          0.72528800       0.41469000       0.25546000
   149  C          0.15611100       0.63791100       0.71494000
   150  C          0.84388900       0.36208900       0.28506000
   151  H          0.10101100       0.70591100       0.73234000
   152  H          0.89898900       0.29408900       0.26766000
   153  C          0.11621100       0.59041100       0.65834000
   154  C          0.88378900       0.40958900       0.34166000
   155  H          0.03211100       0.62421100       0.63694000
   156  H          0.96788900       0.37578900       0.36306000
   157  N          0.31411100       0.63101000       0.80424000
   158  N          0.68588900       0.36899000       0.19576000
   159  O          0.42759000       0.59471000       0.83003000
   160  O          0.57241000       0.40529000       0.16997000
   161  O          0.22681000       0.70389000       0.82703000
   162  O          0.77319000       0.29611000       0.17297000
   163  C          0.07045200       0.57744700       0.06672000
   164  C          0.92954800       0.42255300       0.93328000
   165  H          0.15618000       0.65044600       0.06516000
   166  H          0.84382000       0.34955400       0.93484000
   167  H          0.05917000       0.51269000       0.03268700
   168  H          0.94083000       0.48731000       0.96731300
   169  H          0.08723000       0.51867000       0.10087900
   170  H          0.91277000       0.48133000       0.89912100
   171  C          0.94084900       0.64754000       0.06902300
   172  C          0.05915100       0.35246000       0.93097700
   173  O          0.84764600       0.62635200       0.10171900
   174  O          0.15235400       0.37364800       0.89828100
   175  O          0.96905000       0.76085400       0.03791600
   176  O          0.03095000       0.23914600       0.96208400
   177  C          0.07358400       0.86292900       0.01622100
   178  C          0.92641600       0.13707100       0.98377900
   179  H          0.17618400       0.86022900       0.03512100
   180  H          0.82381600       0.13977100       0.96487900
   181  H          0.04428400       0.96362900       0.01722100
   182  H          0.95571600       0.03637100       0.98277900
   183  C          0.05417100       0.79803800       0.95918000
   184  C          0.94582900       0.20196200       0.04082000
   185  H          0.11947100       0.85413800       0.93498000
   186  H          0.88052900       0.14586200       0.06502000
   187  H          0.94972900       0.79893800       0.94328000
   188  H          0.05027100       0.20106200       0.05672000
   189  H          0.07997100       0.69723800       0.96078000
   190  H          0.92002900       0.30276200       0.03922000
