data_AWEVUV01
_symmetry_space_group_name_H-M    'P1'
_symmetry_Int_Tables_number       1
loop_
_symmetry_equiv_pos_site_id
_symmetry_equiv_pos_as_xyz
1 x,y,z
_cell_length_a                   12.37117
_cell_length_b                   3.82552
_cell_length_c                   21.417512
_cell_angle_alpha                90.0
_cell_angle_beta                 104.1952
_cell_angle_gamma                90.0
loop_
_atom_site_label
_atom_site_type_symbol
_atom_site_fract_x
_atom_site_fract_y
_atom_site_fract_z
     1  O          0.36469100       0.26814000       0.20323600
     2  O          0.13530900       0.76814000       0.29676400
     3  O          0.63530900       0.73186000       0.79676400
     4  O          0.86469100       0.23186000       0.70323600
     5  O          0.76718110       0.02654000       0.13543700
     6  O          0.73281890       0.52654000       0.36456300
     7  O          0.23281890      -0.02654000       0.86456300
     8  O          0.26718110       0.47346000       0.63543700
     9  O          0.66554130       0.93105000       0.03941600
    10  O          0.83445870       0.43105000       0.46058400
    11  O          0.33445870       0.06895000       0.96058400
    12  O          0.16554130       0.56895000       0.53941600
    13  N          0.68271120       0.90754000       0.09853700
    14  N          0.81728880       0.40754000       0.40146300
    15  N          0.31728880       0.09246000       0.90146300
    16  N          0.18271120       0.59246000       0.59853700
    17  C          0.60089140       0.73574000       0.12575800
    18  C          0.89910860       0.23574000       0.37424200
    19  C          0.39910860       0.26426000       0.87424200
    20  C          0.10089140       0.76426000       0.62575800
    21  C          0.49848140       0.63985000       0.08606800
    22  C          0.00151860       0.13985000       0.41393200
    23  C          0.50151860       0.36015000       0.91393200
    24  C         -0.00151860       0.86015000       0.58606800
    25  H          0.48252700       0.68263900       0.04103500
    26  H          0.01747300       0.18263900       0.45896500
    27  H          0.51747300       0.31736100       0.95896500
    28  H          0.98252700       0.81736100       0.54103500
    29  C          0.62601140       0.67484000       0.19178800
    30  C          0.87398860       0.17484000       0.30821200
    31  C          0.37398860       0.32516000       0.80821200
    32  C          0.12601140       0.82516000       0.69178800
    33  H          0.69636500       0.74187600       0.21823100
    34  H          0.80363500       0.24187600       0.28176900
    35  H          0.30363500       0.25812400       0.78176900
    36  H          0.19636500       0.75812400       0.71823100
    37  C          0.44362140       0.41904000       0.17947800
    38  C          0.05637860       0.91904000       0.32052200
    39  C          0.55637860       0.58096000       0.82052200
    40  C          0.94362140       0.08096000       0.67947800
    41  C          0.54795140       0.51624000       0.21849800
    42  C          0.95204860       0.01624000       0.28150200
    43  C          0.45204860       0.48376000       0.78150200
    44  C          0.04795140      -0.01624000       0.71849800
    45  H          0.56475800       0.47239800       0.26350300
    46  H          0.93524200      -0.02760200       0.23649700
    47  H          0.43524200       0.52760200       0.73649700
    48  H          0.06475800       0.02760200       0.76350300
    49  C          0.42023140       0.48145000       0.11295800
    50  C          0.07976860      -0.01855000       0.38704200
    51  C          0.57976860       0.51855000       0.88704200
    52  C          0.92023140       0.01855000       0.61295800
    53  H          0.35012000       0.41429100       0.08621400
    54  H          0.14988000       0.91429100       0.41378600
    55  H          0.64988000       0.58570900       0.91378600
    56  H          0.85012000       0.08570900       0.58621400
    57  H          0.38620000       0.25480000       0.24451500
    58  H          0.11380000       0.75480000       0.25548500
    59  H          0.61380000       0.74520000       0.75548500
    60  H          0.88620000       0.24520000       0.74451500
    61  N          0.07530120       0.67784000       0.16823700
    62  N          0.42469880       0.17784000       0.33176300
    63  N          0.92469880       0.32216000       0.83176300
    64  N          0.57530120       0.82216000       0.66823700
    65  C          0.01552130       0.53934000       0.03500700
    66  C          0.48447870       0.03934000       0.46499300
    67  C          0.98447870       0.46066000       0.96499300
    68  C          0.51552130       0.96066000       0.53500700
    69  C          0.97805150       0.52815000       0.13953800
    70  C          0.52194850       0.02815000       0.36046200
    71  C          0.02194850       0.47185000       0.86046200
    72  C          0.47805150      -0.02815000       0.63953800
    73  H          0.92868700       0.46869400       0.16556600
    74  H          0.57131300      -0.03130600       0.33443400
    75  H          0.07131300       0.53130600       0.83443400
    76  H          0.42868700       0.03130600       0.66556600
    77  C          0.94480140       0.45455000       0.07449800
    78  C          0.55519860       0.95455000       0.42550200
    79  C          0.05519860       0.54545000       0.92550200
    80  C          0.44480140       0.04545000       0.57449800
    81  H          0.87467100       0.34742100       0.05684200
    82  H          0.62532900       0.84742100       0.44315800
    83  H          0.12532900       0.65257900       0.94315800
    84  H          0.37467100       0.15257900       0.55684200
    85  C          0.14324140       0.76455000       0.13058800
    86  C          0.35675860       0.26455000       0.36941200
    87  C          0.85675860       0.23545000       0.86941200
    88  C          0.64324140       0.73545000       0.63058800
    89  H          0.21225400       0.87459300       0.14971800
    90  H          0.28774600       0.37459300       0.35028200
    91  H          0.78774600       0.12540700       0.85028200
    92  H          0.71225400       0.62540700       0.64971800
    93  C          0.11678140       0.69995000       0.06463800
    94  C          0.38321860       0.19995000       0.43536200
    95  C          0.88321860       0.30005000       0.93536200
    96  C          0.61678140       0.80005000       0.56463800
    97  H          0.16742100       0.76478400       0.03972000
    98  H          0.33257900       0.26478400       0.46028000
    99  H          0.83257900       0.23521600       0.96028000
   100  H          0.66742100       0.73521600       0.53972000
