data_AWEWIK
_symmetry_space_group_name_H-M    'P1'
_symmetry_Int_Tables_number       1
loop_
_symmetry_equiv_pos_site_id
_symmetry_equiv_pos_as_xyz
1 x,y,z
_cell_length_a                   3.91672
_cell_length_b                   15.75841
_cell_length_c                   24.138816
_cell_angle_alpha                90.0
_cell_angle_beta                 90.0
_cell_angle_gamma                90.0
loop_
_atom_site_label
_atom_site_type_symbol
_atom_site_fract_x
_atom_site_fract_y
_atom_site_fract_z
     1  C          0.52667000       0.24980160       0.16120110
     2  C         -0.02667000       0.75019840       0.66120110
     3  C          0.47333000       0.74980160       0.33879890
     4  C          0.02667000       0.25019840       0.83879890
     5  C          0.70047000       0.21065170       0.20737100
     6  C          0.79953000       0.78934830       0.70737100
     7  C          0.29953000       0.71065170       0.29262900
     8  C          0.20047000       0.28934830       0.79262900
     9  N          0.77676000       0.12721140       0.20425900
    10  N          0.72324000       0.87278860       0.70425900
    11  N          0.22324000       0.62721140       0.29574100
    12  N          0.27676000       0.37278860       0.79574100
    13  N          0.45146000       0.20130130       0.11675900
    14  N          0.04854000       0.79869870       0.61675900
    15  N          0.54854000       0.70130130       0.38324100
    16  N          0.95146000       0.29869870       0.88324100
    17  C          0.44358000       0.33608180       0.16383140
    18  C          0.05642000       0.66391820       0.66383140
    19  C          0.55642000       0.83608180       0.33616860
    20  C          0.94358000       0.16391820       0.83616860
    21  C          0.29349000       0.23892000       0.07501130
    22  C          0.20651000       0.76108000       0.57501130
    23  C          0.70651000       0.73892000       0.42498870
    24  C          0.79349000       0.26108000       0.92498870
    25  C          0.78328000       0.25912000       0.25410120
    26  C          0.71672000       0.74088000       0.75410120
    27  C          0.21672000       0.75912000       0.24589880
    28  C          0.28328000       0.24088000       0.74589880
    29  C          0.27779000       0.37162000       0.11852000
    30  C          0.22221000       0.62838000       0.61852000
    31  C          0.72221000       0.87162000       0.38148000
    32  C          0.77779000       0.12838000       0.88148000
    33  C          0.94961000       0.21803000       0.29799140
    34  C          0.55039000       0.78197000       0.79799140
    35  C          0.05039000       0.71803000       0.20200860
    36  C          0.44961000       0.28197000       0.70200860
    37  C          0.69281100       0.34783000       0.25494190
    38  C          0.80718900       0.65217000       0.75494190
    39  C          0.30718900       0.84783000       0.24505810
    40  C          0.19281100       0.15217000       0.74505810
    41  C          0.02821000       0.13483000       0.29456140
    42  C          0.47179000       0.86517000       0.79456140
    43  C         -0.02821000       0.63483000       0.20543860
    44  C          0.52821000       0.36517000       0.70543860
    45  C          0.93529000       0.09172000       0.24653140
    46  C          0.56471000       0.90828000       0.74653140
    47  C          0.06471000       0.59172000       0.25346860
    48  C          0.43529000       0.40828000       0.75346860
    49  C          0.20381000       0.32333000       0.07392000
    50  C          0.29619000       0.67667000       0.57392000
    51  C          0.79619000       0.82333000       0.42608000
    52  C          0.70381000       0.17667000       0.92608000
    53  C          0.53361000       0.38342000       0.21252000
    54  C         -0.03361000       0.61658000       0.71252000
    55  C          0.46639000       0.88342000       0.28748000
    56  C          0.03361000       0.11658000       0.78748000
    57  H          0.25590000       0.19751900       0.04301200
    58  H          0.24410000       0.80248100       0.54301200
    59  H          0.74410000       0.69751900       0.45698800
    60  H          0.75590000       0.30248100       0.95698800
    61  H          0.00811000       0.25120000       0.32911300
    62  H          0.49189000       0.74880000       0.82911300
    63  H         -0.00811000       0.75120000       0.17088700
    64  H          0.50811000       0.24880000       0.67088700
    65  H         -0.00689000       0.03120000       0.24201200
    66  H          0.50689000       0.96880000       0.74201200
    67  H          0.00689000       0.53120000       0.25798800
    68  H          0.49311000       0.46880000       0.75798800
    69  H          0.47010000       0.43920000       0.21351200
    70  H          0.02990000       0.56080000       0.71351200
    71  H          0.52990000       0.93920000       0.28648800
    72  H         -0.02990000       0.06080000       0.78648800
    73  H          0.22010000       0.43620000       0.12091300
    74  H          0.27990000       0.56380000       0.62091300
    75  H          0.77990000       0.93620000       0.37908700
    76  H          0.72010000       0.06380000       0.87908700
    77  H          0.74810000       0.37520000       0.28931500
    78  H          0.75190000       0.62480000       0.78931500
    79  H          0.25190000       0.87520000       0.21068500
    80  H          0.24810000       0.12480000       0.71068500
    81  H          0.09310000       0.35020000       0.04271400
    82  H          0.40690000       0.64980000       0.54271400
    83  H          0.90690000       0.85020000       0.45728600
    84  H          0.59310000       0.14980000       0.95728600
    85  H          0.16517000       0.10730000       0.33120000
    86  H          0.33483000       0.89270000       0.83120000
    87  H          0.83483000       0.60730000       0.16880000
    88  H          0.66517000       0.39270000       0.66880000
    89  O          0.57906000       0.98644860       0.14967800
    90  O          0.92094000       0.01355140       0.64967800
    91  O          0.42094000       0.48644860       0.35032200
    92  O          0.07906000       0.51355140       0.85032200
    93  N          0.05458000       0.89925820       0.94183900
    94  N          0.44542000       0.10074180       0.44183900
    95  N          0.94542000       0.39925820       0.55816100
    96  N          0.55458000       0.60074180       0.05816100
    97  C          0.76658000       0.86286810       0.02865120
    98  C          0.73342000       0.13713190       0.52865120
    99  C          0.23342000       0.36286810       0.47134880
   100  C          0.26658000       0.63713190       0.97134880
   101  C          0.87067000       0.02532180       0.06694110
   102  C          0.62933000       0.97467820       0.56694110
   103  C          0.12933000       0.52532180       0.43305890
   104  C          0.37067000       0.47467820       0.93305890
   105  O          0.00789000       0.82647860       0.92541100
   106  O          0.49211000       0.17352140       0.42541100
   107  O         -0.00789000       0.32647860       0.57458900
   108  O          0.50789000       0.67352140       0.07458900
   109  C          0.93178000       0.92197840      -0.00357110
   110  C          0.56822000       0.07802160       0.49642890
   111  C          0.06822000       0.42197840       0.50357110
   112  C          0.43178000       0.57802160       0.00357110
   113  C          0.65398000       0.88494820       0.08006130
   114  C          0.84602000       0.11505180       0.58006130
   115  C          0.34602000       0.38494820       0.41993870
   116  C          0.15398000       0.61505180       0.91993870
   117  O          0.20178000       0.95303850       0.91407100
   118  O          0.29822000       0.04696150       0.41407100
   119  O          0.79822000       0.45303850       0.58592900
   120  O          0.70178000       0.54696150       0.08592900
   121  C          0.70127000       0.96699840       0.09938110
   122  C          0.79873000       0.03300160       0.59938110
   123  C          0.29873000       0.46699840       0.40061890
   124  C          0.20127000       0.53300160       0.90061890
   125  C         -0.01481000       0.00317170       0.01535110
   126  C          0.51481000      -0.00317170       0.51535110
   127  C          0.01481000       0.50317170       0.48464890
   128  C          0.48519000       0.49682830       0.98464890
   129  H          0.54570000       0.84768500       0.10481000
   130  H          0.95430000       0.15231500       0.60481000
   131  H          0.45430000       0.34768500       0.39519000
   132  H          0.04570000       0.65231500       0.89519000
   133  H          0.90480000       0.07981700       0.08171000
   134  H          0.59520000       0.92018300       0.58171000
   135  H          0.09520000       0.57981700       0.41829000
   136  H          0.40480000       0.42018300       0.91829000
   137  H          0.75380000       0.81078100       0.01491100
   138  H          0.74620000       0.18921900       0.51491100
   139  H          0.24620000       0.31078100       0.48508900
   140  H          0.25380000       0.68921900       0.98508900
   141  H          0.11470000       0.04101600      -0.00551000
   142  H          0.38530000       0.95898400       0.49449000
   143  H          0.88530000       0.54101600       0.50551000
   144  H          0.61470000       0.45898400       0.00551000
   145  H          0.63990000       0.03720000       0.16041300
   146  H          0.86010000       0.96280000       0.66041300
   147  H          0.36010000       0.53720000       0.33958700
   148  H          0.13990000       0.46280000       0.83958700
