data_AWEWOQ
_symmetry_space_group_name_H-M    'P1'
_symmetry_Int_Tables_number       1
loop_
_symmetry_equiv_pos_site_id
_symmetry_equiv_pos_as_xyz
1 x,y,z
_cell_length_a                   3.92372
_cell_length_b                   9.68165
_cell_length_c                   14.33798
_cell_angle_alpha                76.9992
_cell_angle_beta                 86.2882
_cell_angle_gamma                79.0982
loop_
_atom_site_label
_atom_site_type_symbol
_atom_site_fract_x
_atom_site_fract_y
_atom_site_fract_z
     1  N         -0.02597000       0.41691140       0.93264800
     2  N          0.02597000       0.58308860       0.06735200
     3  C          0.82414000       0.55599160       0.91792100
     4  C          0.17586000       0.44400840       0.08207900
     5  C          0.15034000       0.35939160       0.01363100
     6  C          0.84966000       0.64060840       0.98636900
     7  C          0.31485000       0.21252180       0.03248120
     8  C          0.68515000       0.78747820       0.96751880
     9  C          0.63845000       0.62312000       0.83304110
    10  C          0.36155000       0.37688000       0.16695890
    11  C          0.49015000       0.76312000       0.81736130
    12  C          0.50985000       0.23688000       0.18263870
    13  C          0.48865000       0.15382000       0.11445130
    14  C          0.51135000       0.84618000       0.88554870
    15  H          0.29750000       0.15920000       0.98601300
    16  H          0.70250000       0.84080000       0.01398700
    17  H          0.61050000       0.05420000       0.12581300
    18  H          0.38950000       0.94580000       0.87418700
    19  H          0.62840000       0.56661900       0.78931300
    20  H          0.37160000       0.43338100       0.21068700
    21  H          0.36550000       0.80820000       0.76071500
    22  H          0.63450000       0.19180000       0.23928500
    23  O          0.87976000       0.20983140       0.83288800
    24  O          0.12024000       0.79016860       0.16711200
    25  C         -0.00944000       0.22451160       0.74068110
    26  C          0.00944000       0.77548840       0.25931890
    27  C          0.12474000       0.34325170       0.69077120
    28  C          0.87526000       0.65674830       0.30922880
    29  C          0.19864000       0.24258160       0.55292100
    30  C          0.80136000       0.75741840       0.44707900
    31  C          0.96336000       0.11476170       0.69564110
    32  C          0.03664000       0.88523830       0.30435890
    33  C          0.06794000       0.12305170       0.60181120
    34  C          0.93206000       0.87694830       0.39818880
    35  N          0.31334000       0.25096160       0.45372100
    36  N          0.68666000       0.74903840       0.54627900
    37  C          0.22804000       0.35288170       0.59654120
    38  C          0.77196000       0.64711830       0.40345880
    39  O          0.27335000       0.15518170       0.41512100
    40  O          0.72665000       0.84481830       0.58487900
    41  O          0.44774000       0.35271160       0.41240900
    42  O          0.55226000       0.64728840       0.58759100
    43  H          0.13740000       0.41711900       0.72111200
    44  H          0.86260000       0.58288100       0.27888800
    45  H          0.05150000       0.04720000       0.57151200
    46  H          0.94850000       0.95280000       0.42848800
    47  H          0.32040000       0.43281900       0.56361200
    48  H          0.67960000       0.56718100       0.43638800
    49  H          0.86660000       0.03431900       0.73121200
    50  H          0.13340000       0.96568100       0.26878800
    51  H          0.90340000       0.28430000       0.85661800
    52  H          0.09660000       0.71570000       0.14338200
