data_AWISUU
_symmetry_space_group_name_H-M    'P1'
_symmetry_Int_Tables_number       1
loop_
_symmetry_equiv_pos_site_id
_symmetry_equiv_pos_as_xyz
1 x,y,z
_cell_length_a                   19.3238
_cell_length_b                   7.1453
_cell_length_c                   8.5664
_cell_angle_alpha                90.0
_cell_angle_beta                 112.193
_cell_angle_gamma                90.0
loop_
_atom_site_label
_atom_site_type_symbol
_atom_site_fract_x
_atom_site_fract_y
_atom_site_fract_z
     1  Br         0.50000000       0.30311800       0.00000000
     2  Br        -0.00000000       0.80311800       0.00000000
     3  O          0.74314000       0.81130000       0.47448000
     4  O          0.25686000       0.81130000       0.52552000
     5  O          0.24314000       0.31130000       0.47448000
     6  O          0.75686000       0.31130000       0.52552000
     7  N          0.83681000       0.65030000       0.66401700
     8  N          0.16319000       0.65030000       0.33598300
     9  N          0.33681000       0.15030000       0.66401700
    10  N          0.66319000       0.15030000       0.33598300
    11  H          0.81750000       0.54470000       0.62090000
    12  H          0.18250000       0.54470000       0.37910000
    13  H          0.31750000       0.04470000       0.62090000
    14  H          0.68250000       0.04470000       0.37910000
    15  H          0.87830000       0.65290000       0.75000000
    16  H          0.12170000       0.65290000       0.25000000
    17  H          0.37830000       0.15290000       0.75000000
    18  H          0.62170000       0.15290000       0.25000000
    19  N          0.83599000       0.96530000       0.66920000
    20  N          0.16401000       0.96530000       0.33080000
    21  N          0.33599000       0.46530000       0.66920000
    22  N          0.66401000       0.46530000       0.33080000
    23  H          0.81590000       0.07100000       0.62960000
    24  H          0.18410000       0.07100000       0.37040000
    25  H          0.31590000       0.57100000       0.62960000
    26  H          0.68410000       0.57100000       0.37040000
    27  H          0.87740000       0.96100000       0.75500000
    28  H          0.12260000       0.96100000       0.24500000
    29  H          0.37740000       0.46100000       0.75500000
    30  H          0.62260000       0.46100000       0.24500000
    31  C          0.80285000       0.80830000       0.59801000
    32  C          0.19715000       0.80830000       0.40199000
    33  C          0.30285000       0.30830000       0.59801000
    34  C          0.69715000       0.30830000       0.40199000
    35  N          0.55554000       0.79930000       0.65079000
    36  N          0.44446000       0.79930000       0.34921000
    37  N          0.05554000       0.29930000       0.65079000
    38  N          0.94446000       0.29930000       0.34921000
    39  H          0.50000000       0.82400000       0.50000000
    40  H         -0.00000000       0.32400000       0.50000000
    41  C          0.58524000       0.81340000       0.95779000
    42  C          0.41476000       0.81340000       0.04221000
    43  C          0.08524000       0.31340000       0.95779000
    44  C          0.91476000       0.31340000       0.04221000
    45  H          0.57940000       0.93350000       0.00340000
    46  H          0.42060000       0.93350000      -0.00340000
    47  H          0.07940000       0.43350000       0.00340000
    48  H          0.92060000       0.43350000      -0.00340000
    49  H          0.58210000       0.71610000       0.03410000
    50  H          0.41790000       0.71610000       0.96590000
    51  H          0.08210000       0.21610000       0.03410000
    52  H          0.91790000       0.21610000       0.96590000
    53  C          0.58951300       0.60920000       0.67330000
    54  C          0.41048700       0.60920000       0.32670000
    55  C          0.08951300       0.10920000       0.67330000
    56  C          0.91048700       0.10920000       0.32670000
    57  H          0.60440000       0.57730000       0.57950000
    58  H          0.39560000       0.57730000       0.42050000
    59  H          0.10440000       0.07730000       0.57950000
    60  H          0.89560000       0.07730000       0.42050000
    61  H          0.55500000       0.51430000       0.68110000
    62  H          0.44500000       0.51430000       0.31890000
    63  H          0.05500000       0.01430000       0.68110000
    64  H          0.94500000       0.01430000       0.31890000
    65  C          0.66065000       0.80330000       0.93941400
    66  C          0.33935000       0.80330000       0.06058600
    67  C          0.16065000       0.30330000       0.93941400
    68  C          0.83935000       0.30330000       0.06058600
    69  H          0.70110000       0.79550000       0.05050000
    70  H          0.29890000       0.79550000       0.94950000
    71  H          0.20110000       0.29550000       0.05050000
    72  H          0.79890000       0.29550000       0.94950000
    73  C          0.65781500       0.62630000       0.83830000
    74  C          0.34218500       0.62630000       0.16170000
    75  C          0.15781500       0.12630000       0.83830000
    76  C          0.84218500       0.12630000       0.16170000
    77  H          0.65870000       0.51860000       0.90860000
    78  H          0.34130000       0.51860000       0.09140000
    79  H          0.15870000       0.01860000       0.90860000
    80  H          0.84130000       0.01860000       0.09140000
    81  H          0.70260000       0.62050000       0.81310000
    82  H          0.29740000       0.62050000       0.18690000
    83  H          0.20260000       0.12050000       0.81310000
    84  H          0.79740000       0.12050000       0.18690000
    85  C          0.52335000       0.78540000       0.78289000
    86  C          0.47665000       0.78540000       0.21711000
    87  C          0.02335000       0.28540000       0.78289000
    88  C          0.97665000       0.28540000       0.21711000
    89  H          0.50030000       0.66340000       0.77720000
    90  H          0.49970000       0.66340000       0.22280000
    91  H          0.00030000       0.16340000       0.77720000
    92  H         -0.00030000       0.16340000       0.22280000
    93  H          0.48510000       0.88000000       0.76370000
    94  H          0.51490000       0.88000000       0.23630000
    95  H          0.98510000       0.38000000       0.76370000
    96  H          0.01490000       0.38000000       0.23630000
    97  C          0.60831100       0.95730000       0.66920000
    98  C          0.39168900       0.95730000       0.33080000
    99  C          0.10831100       0.45730000       0.66920000
   100  C          0.89168900       0.45730000       0.33080000
   101  H          0.58010000       0.07260000       0.64350000
   102  H          0.41990000       0.07260000       0.35650000
   103  H          0.08010000       0.57260000       0.64350000
   104  H          0.91990000       0.57260000       0.35650000
   105  H          0.63080000       0.94150000       0.58550000
   106  H          0.36920000       0.94150000       0.41450000
   107  H          0.13080000       0.44150000       0.58550000
   108  H          0.86920000       0.44150000       0.41450000
   109  C          0.67101400       0.97440000       0.84430000
   110  C          0.32898600       0.97440000       0.15570000
   111  C          0.17101400       0.47440000       0.84430000
   112  C          0.82898600       0.47440000       0.15570000
   113  H          0.71970000       0.97180000       0.83550000
   114  H          0.28030000       0.97180000       0.16450000
   115  H          0.21970000       0.47180000       0.83550000
   116  H          0.78030000       0.47180000       0.16450000
   117  H          0.66610000       0.08870000       0.89900000
   118  H          0.33390000       0.08870000       0.10100000
   119  H          0.16610000       0.58870000       0.89900000
   120  H          0.83390000       0.58870000       0.10100000
