data_AWOPOU01
_symmetry_space_group_name_H-M    'P1'
_symmetry_Int_Tables_number       1
loop_
_symmetry_equiv_pos_site_id
_symmetry_equiv_pos_as_xyz
1 x,y,z
_cell_length_a                   7.34223
_cell_length_b                   7.56503
_cell_length_c                   24.44159
_cell_angle_alpha                90.0
_cell_angle_beta                 90.0
_cell_angle_gamma                90.0
loop_
_atom_site_label
_atom_site_type_symbol
_atom_site_fract_x
_atom_site_fract_y
_atom_site_fract_z
     1  I          0.69427200       0.54837200       0.60546200
     2  I          0.80572800       0.45162800       0.10546200
     3  I          0.30572800       0.04837200       0.89453800
     4  I          0.19427200       0.95162800       0.39453800
     5  O          0.69733000       0.43252000       0.40167700
     6  O          0.80267000       0.56748000       0.90167700
     7  O          0.30267000       0.93252000       0.09832300
     8  O          0.19733000       0.06748000       0.59832300
     9  C          0.71323000       0.26822000       0.38796800
    10  C          0.78677000       0.73178000       0.88796800
    11  C          0.28677000       0.76822000       0.11203200
    12  C          0.21323000       0.23178000       0.61203200
    13  H          0.72990000       0.53690000       0.36630000
    14  H          0.77010000       0.46310000       0.86630000
    15  H          0.27010000       0.03690000       0.13370000
    16  H          0.22990000       0.96310000       0.63370000
    17  O          0.76772000       0.20952000       0.34459700
    18  O          0.73228000       0.79048000       0.84459700
    19  O          0.23228000       0.70952000       0.15540300
    20  O          0.26772000       0.29048000       0.65540300
    21  C          0.65283000       0.14692000       0.43377700
    22  C          0.84717000       0.85308000       0.93377700
    23  C          0.34717000       0.64692000       0.06622300
    24  C          0.15283000       0.35308000       0.56622300
    25  H          0.52358300       0.17525500       0.44323500
    26  H          0.97641700       0.82474500       0.94323500
    27  H          0.47641700       0.67525500       0.05676500
    28  H          0.02358300       0.32474500       0.55676500
    29  N          0.66322000       0.95728000       0.41654600
    30  N          0.83678000       0.04272000       0.91654600
    31  N          0.33678000       0.45728000       0.08345400
    32  N          0.16322000       0.54272000       0.58345400
    33  H          0.74760900       0.94438200       0.38957200
    34  H          0.75239100       0.05561800       0.88957200
    35  H          0.25239100       0.44438200       0.11042800
    36  H          0.24760900       0.55561800       0.61042800
    37  H          0.55339600       0.92126000       0.40338200
    38  H          0.94660400       0.07874000       0.90338200
    39  H          0.44660400       0.42126000       0.09661800
    40  H          0.05339600       0.57874000       0.59661800
    41  C          0.71574000       0.84747000       0.46550900
    42  C          0.78426000       0.15253000       0.96550900
    43  C          0.28426000       0.34747000       0.03449100
    44  C          0.21574000       0.65253000       0.53449100
    45  H          0.83603400       0.79137900       0.45991200
    46  H          0.66396600       0.20862100       0.95991200
    47  H          0.16396600       0.29137900       0.04008800
    48  H          0.33603400       0.70862100       0.54008800
    49  H          0.62408900       0.75410200       0.47239400
    50  H          0.87591100       0.24589800       0.97239400
    51  H          0.37591100       0.25410200       0.02760600
    52  H          0.12408900       0.74589800       0.52760600
    53  C          0.72224000       0.97747000       0.51261900
    54  C          0.77776000       0.02253000       0.01261900
    55  C          0.27776000       0.47747000       0.98738100
    56  C          0.22224000       0.52253000       0.48738100
    57  H          0.81784700       0.94414800       0.53922100
    58  H          0.68215300       0.05585200       0.03922100
    59  H          0.18215300       0.44414800       0.96077900
    60  H          0.31784700       0.55585200       0.46077900
    61  H          0.60343600      -0.01750500       0.53175400
    62  H          0.89656400       0.01750500       0.03175400
    63  H          0.39656400       0.48249500       0.96824600
    64  H          0.10343600       0.51750500       0.46824600
    65  C          0.76623000       0.15453000       0.48567800
    66  C          0.73377000       0.84547000       0.98567800
    67  C          0.23377000       0.65453000       0.01432200
    68  C          0.26623000       0.34547000       0.51432200
    69  H          0.72916300       0.25482600       0.50919000
    70  H          0.77083700       0.74517400       0.00919000
    71  H          0.27083700       0.75482600       0.99081000
    72  H          0.22916300       0.24517400       0.49081000
    73  H          0.89765100       0.16463300       0.47725000
    74  H          0.60234900       0.83536700       0.97725000
    75  H          0.10234900       0.66463300       0.02275000
    76  H          0.39765100       0.33536700       0.52275000
    77  O          0.75352000       0.68502190       0.34101600
    78  O          0.74648000       0.31497810       0.84101600
    79  O          0.24648000       0.18502190       0.15898400
    80  O          0.25352000       0.81497810       0.65898400
    81  C          0.79553000       0.67012000       0.29061700
    82  C          0.70447000       0.32988000       0.79061700
    83  C          0.20447000       0.17012000       0.20938300
    84  C          0.29553000       0.82988000       0.70938300
    85  O          0.82472000       0.53132190       0.26555600
    86  O          0.67528000       0.46867810       0.76555600
    87  O          0.17528000       0.03132190       0.23444400
    88  O          0.32472000       0.96867810       0.73444400
    89  C          0.80683000       0.84412000       0.26005700
    90  C          0.69317000       0.15588000       0.76005700
    91  C          0.19317000       0.34412000       0.23994300
    92  C          0.30683000       0.65588000       0.73994300
    93  H          0.88320000       0.92881200       0.28149100
    94  H          0.61680000       0.07118800       0.78149100
    95  H          0.11680000       0.42881200       0.21850900
    96  H          0.38320000       0.57118800       0.71850900
    97  N          0.89152000       0.81602000       0.20492700
    98  N          0.60848000       0.18398000       0.70492700
    99  N          0.10848000       0.31602000       0.29507300
   100  N          0.39152000       0.68398000       0.79507300
   101  H          0.87452100       0.70236600       0.19386800
   102  H          0.62547900       0.29763400       0.69386800
   103  H          0.12547900       0.20236600       0.30613200
   104  H          0.37452100       0.79763400       0.80613200
   105  H          0.01338800       0.83744600       0.20654400
   106  H          0.48661200       0.16255400       0.70654400
   107  H         -0.01338800       0.33744600       0.29345600
   108  H          0.51338800       0.66255400       0.79345600
   109  C          0.80203000       0.94183000       0.16510700
   110  C          0.69797000       0.05817000       0.66510700
   111  C          0.19797000       0.44183000       0.33489300
   112  C          0.30203000       0.55817000       0.83489300
   113  H          0.73248900       0.87601500       0.13698700
   114  H          0.76751100       0.12398500       0.63698700
   115  H          0.26751100       0.37601500       0.36301300
   116  H          0.23248900       0.62398500       0.86301300
   117  H          0.89412200       0.01651200       0.14668100
   118  H          0.60587800      -0.01651200       0.64668100
   119  H          0.10587800       0.51651200       0.35331900
   120  H          0.39412200       0.48348800       0.85331900
   121  C          0.67503000       0.05413000       0.20023900
   122  C          0.82497000       0.94587000       0.70023900
   123  C          0.32497000       0.55413000       0.29976100
   124  C          0.17503000       0.44587000       0.79976100
   125  H          0.73800900       0.16084900       0.21402700
   126  H          0.76199100       0.83915100       0.71402700
   127  H          0.26199100       0.66084900       0.28597300
   128  H          0.23800900       0.33915100       0.78597300
   129  H          0.56574500       0.09058000       0.17934600
   130  H          0.93425500       0.90942000       0.67934600
   131  H          0.43425500       0.59058000       0.32065400
   132  H          0.06574500       0.40942000       0.82065400
   133  C          0.62443000       0.93033000       0.24693900
   134  C          0.87557000       0.06967000       0.74693900
   135  C          0.37557000       0.43033000       0.25306100
   136  C          0.12443000       0.56967000       0.75306100
   137  H          0.53330400       0.84159300       0.23519500
   138  H          0.96669600       0.15840700       0.73519500
   139  H          0.46669600       0.34159300       0.26480500
   140  H          0.03330400       0.65840700       0.76480500
   141  H          0.57633700      -0.00347200       0.27874200
   142  H          0.92366300       0.00347200       0.77874200
   143  H          0.42366300       0.49652800       0.22125800
   144  H          0.07633700       0.50347200       0.72125800
