data_AWUWUN
_symmetry_space_group_name_H-M    'P1'
_symmetry_Int_Tables_number       1
loop_
_symmetry_equiv_pos_site_id
_symmetry_equiv_pos_as_xyz
1 x,y,z
_cell_length_a                   13.156112
_cell_length_b                   13.288613
_cell_length_c                   19.268319
_cell_angle_alpha                104.5249
_cell_angle_beta                 95.4068
_cell_angle_gamma                107.8228
loop_
_atom_site_label
_atom_site_type_symbol
_atom_site_fract_x
_atom_site_fract_y
_atom_site_fract_z
     1  I          0.22915400       0.71472400       0.08726200
     2  I          0.77084600       0.28527600       0.91273800
     3  I          0.58419400       0.87089500       0.34775300
     4  I          0.41580600       0.12910500       0.65224700
     5  F          0.27644000       0.47134000       0.26403000
     6  F          0.72356000       0.52866000       0.73597000
     7  F          0.45314000       0.62714000       0.35142000
     8  F          0.54686000       0.37286000       0.64858000
     9  F          0.17774000       0.50753000       0.15012000
    10  F          0.82226000       0.49247000       0.84988000
    11  C          0.31637000       0.56797000       0.24954000
    12  C          0.68363000       0.43203000       0.75046000
    13  C          0.40847000       0.64918000       0.29444000
    14  C          0.59153000       0.35082000       0.70556000
    15  C          0.26656000       0.58586000       0.19214000
    16  C          0.73344000       0.41414000       0.80786000
    17  C          0.30415000       0.68336000       0.17573000
    18  C          0.69585000       0.31664000       0.82427000
    19  C          0.39655000       0.76256000       0.22163000
    20  C          0.60345000       0.23744000       0.77837000
    21  F          0.43753000       0.85973000       0.20743190
    22  F          0.56247000       0.14027000       0.79256810
    23  C          0.44765000       0.74686000       0.28233000
    24  C          0.55235000       0.25314000       0.71767000
    25  I          0.62153500       0.41127500       0.34654300
    26  I          0.37846500       0.58872500       0.65345700
    27  I          0.24167400       0.21117400       0.09599200
    28  I          0.75832600       0.78882600       0.90400800
    29  F          0.45413000       0.37733000       0.20732000
    30  F          0.54587000       0.62267000       0.79268000
    31  F          0.21633000       0.01963000       0.17242000
    32  F          0.78367000       0.98037000       0.82758000
    33  F          0.33264000       0.00513000       0.28752000
    34  F          0.66736000      -0.00513000       0.71248000
    35  F          0.50984000       0.17184000       0.36312000
    36  F          0.49016000       0.82816000       0.63688000
    37  C          0.36216000       0.09656000       0.26684000
    38  C          0.63784000       0.90344000       0.73316000
    39  C          0.42525000       0.28555000       0.22803000
    40  C          0.57475000       0.71445000       0.77197000
    41  C          0.33255000       0.19906000       0.18663000
    42  C          0.66745000       0.80094000       0.81337000
    43  C          0.30355000       0.10576000       0.20944000
    44  C          0.69645000       0.89424000       0.79056000
    45  C          0.45117000       0.18247000       0.30544000
    46  C          0.54883000       0.81753000       0.69456000
    47  C          0.48525000       0.28026000       0.28683000
    48  C          0.51475000       0.71974000       0.71317000
    49  I         -0.01164500       0.40133400       0.38713300
    50  I          0.01164500       0.59866600       0.61286700
    51  I          0.15959400       0.27293400       0.64199200
    52  I          0.84040600       0.72706600       0.35800800
    53  F          0.13513000       0.40823000       0.52921190
    54  F          0.86487000       0.59177000       0.47078810
    55  F          0.82663000       0.16944000       0.35994170
    56  F          0.17337000       0.83056000       0.64005830
    57  F          0.81653000       0.01103000       0.43652000
    58  F          0.18347000      -0.01103000       0.56348000
    59  F          0.96153000       0.06383000       0.56193000
    60  F          0.03847000       0.93617000       0.43807000
    61  C          0.05496000       0.31046000       0.50623000
    62  C          0.94504000       0.68954000       0.49377000
    63  C          0.04845000       0.23546000       0.54663000
    64  C          0.95155000       0.76454000       0.45337000
    65  C          0.89776000       0.18456000       0.41924000
    66  C          0.10224000       0.81544000       0.58076000
    67  C          0.97856000       0.28646000       0.44413000
    68  C          0.02144000       0.71354000       0.55587000
    69  C          0.89316000       0.10896000       0.45964000
    70  C          0.10684000       0.89104000       0.54036000
    71  C          0.96936000       0.13507000       0.52184000
    72  C          0.03064000       0.86493000       0.47816000
    73  O          0.04804000       0.05004000       0.31232000
    74  O          0.95196000       0.94996000       0.68768000
    75  H         -0.00380000       0.02020000       0.27820000
    76  H          0.00380000       0.97980000       0.72180000
    77  O          0.91636000       0.02524000       0.20343000
    78  O          0.08364000       0.97476000       0.79657000
    79  N          0.86075000       0.22876000       0.03043000
    80  N          0.13925000       0.77124000       0.96957000
    81  C          0.22686000       0.16186000       0.41753000
    82  C          0.77314000       0.83814000       0.58247000
    83  H          0.18690000       0.08880000       0.41340000
    84  H          0.81310000       0.91120000       0.58660000
    85  C          0.25666000       0.31946000       0.37573000
    86  C          0.74334000       0.68054000       0.62427000
    87  H          0.23680000       0.35350000       0.34260000
    88  H          0.76320000       0.64650000       0.65740000
    89  C          0.10146000       0.14766000       0.30953000
    90  C          0.89854000       0.85234000       0.69047000
    91  C          0.19806000       0.21326000       0.36743000
    92  C          0.80194000       0.78674000       0.63257000
    93  C          0.93625000       0.16116000       0.14473000
    94  C          0.06375000       0.83884000       0.85527000
    95  C          0.97364000       0.12096000       0.20263000
    96  C          0.02636000       0.87904000       0.79737000
    97  C          0.31438000       0.22059000       0.47254000
    98  C          0.68562000       0.77941000       0.52746000
    99  H          0.33490000       0.18750000       0.50600000
   100  H          0.66510000       0.81250000       0.49400000
   101  C          0.86174000       0.08686000       0.08394000
   102  C          0.13826000       0.91314000       0.91606000
   103  H          0.83520000       0.01180000       0.08010000
   104  H          0.16480000      -0.01180000       0.91990000
   105  C          0.97025000       0.26826000       0.14393000
   106  C          0.02975000       0.73174000       0.85607000
   107  H          0.02020000       0.32130000       0.18360000
   108  H          0.97980000       0.67870000       0.81640000
   109  C          0.06735000       0.18485000       0.25483000
   110  C          0.93265000       0.81515000       0.74517000
   111  H          0.10740000       0.25440000       0.25240000
   112  H          0.89260000       0.74560000       0.74760000
   113  C          0.82734000       0.12547000       0.02884000
   114  C          0.17266000       0.87453000       0.97116000
   115  H          0.77750000       0.07440000       0.98830000
   116  H          0.22250000       0.92560000       0.01170000
   117  C          0.93474000       0.30136000       0.08784000
   118  C          0.06526000       0.69864000       0.91216000
   119  H          0.96240000       0.37530000       0.08930000
   120  H          0.03760000       0.62470000       0.91070000
   121  C          0.34226000       0.37807000       0.42964000
   122  C          0.65774000       0.62193000       0.57036000
   123  H          0.38110000       0.45140000       0.43400000
   124  H          0.61890000       0.54860000       0.56600000
   125  C          0.37147000       0.32789000       0.47804000
   126  C          0.62853000       0.67211000       0.52196000
   127  H          0.43120000       0.36750000       0.51540000
   128  H          0.56880000       0.63250000       0.48460000
   129  O          0.93324000       0.54764000       0.19142000
   130  O          0.06676000       0.45236000       0.80858000
   131  H          0.95970000       0.53080000       0.22520000
   132  H          0.04030000       0.46920000       0.77480000
   133  C         -0.01354000       0.65116000       0.19693000
   134  C          0.01354000       0.34884000       0.80307000
   135  O          0.05384000       0.56914000       0.30402000
   136  O          0.94616000       0.43086000       0.69598000
   137  C          0.94835000       0.68886000       0.13863000
   138  C          0.05165000       0.31114000       0.86137000
   139  C         -0.01225000       0.79715000       0.13673000
   140  C          0.01225000       0.20285000       0.86327000
   141  H          0.04100000       0.85040000       0.17450000
   142  H          0.95900000       0.14960000       0.82550000
   143  C          0.07065000       0.71155000       0.25293000
   144  C          0.92935000       0.28845000       0.74707000
   145  H          0.10910000       0.78420000       0.25550000
   146  H          0.89090000       0.21580000       0.74450000
   147  C          0.10156000       0.66736000       0.30753000
   148  C          0.89844000       0.33264000       0.69247000
   149  N          0.87165000       0.75706000       0.02483000
   150  N          0.12835000       0.24294000       0.97517000
   151  C          0.19276000       0.73546000       0.36883000
   152  C          0.80724000       0.26454000       0.63117000
   153  C          0.24406000       0.84746000       0.38194000
   154  C          0.75594000       0.15254000       0.61806000
   155  H          0.22170000       0.88450000       0.35180000
   156  H          0.77830000       0.11550000       0.64820000
   157  C          0.32936000       0.90406000       0.44074000
   158  C          0.67064000       0.09594000       0.55926000
   159  H          0.36530000       0.97930000       0.44940000
   160  H          0.63470000       0.02070000       0.55060000
   161  C          0.86876000       0.61496000       0.08063000
   162  C          0.13124000       0.38504000       0.91937000
   163  H          0.83890000       0.54090000       0.07860000
   164  H          0.16110000       0.45910000       0.92140000
   165  C          0.31067000       0.74328000       0.47484000
   166  C          0.68933000       0.25672000       0.52516000
   167  H          0.33320000       0.70800000       0.50610000
   168  H          0.66680000       0.29200000       0.49390000
   169  C          0.22636000       0.68536000       0.41784000
   170  C          0.77364000       0.31464000       0.58216000
   171  H          0.19020000       0.61060000       0.41130000
   172  H          0.80980000       0.38940000       0.58870000
   173  C          0.94845000       0.82496000       0.07974000
   174  C          0.05155000       0.17504000       0.92026000
   175  H          0.97800000       0.89800000       0.07950000
   176  H          0.02200000       0.10200000       0.92050000
   177  C          0.83496000       0.65257000       0.02654000
   178  C          0.16504000       0.34743000       0.97346000
   179  H          0.78190000       0.60140000       0.98760000
   180  H          0.21810000       0.39860000       0.01240000
   181  C          0.36046000       0.85148000       0.48524000
   182  C          0.63954000       0.14852000       0.51476000
   183  H          0.41800000       0.89110000       0.52420000
   184  H          0.58200000       0.10890000       0.47580000
   185  O          0.40374000       0.55624000       0.01852000
   186  O          0.59626000       0.44376000       0.98148000
   187  H          0.36080000       0.55190000       0.98320000
   188  H          0.63920000       0.44810000       0.01680000
   189  O          0.32944000       0.61014000       0.91718000
   190  O          0.67056000       0.38986000       0.08282000
   191  C          0.47896000       0.88717000       0.91626000
   192  C          0.52104000       0.11283000       0.08374000
   193  H          0.53460000       0.90920000       0.95630000
   194  H          0.46540000       0.09080000       0.04370000
   195  N          0.70845000       0.69475000       0.22323000
   196  N          0.29155000       0.30525000       0.77677000
   197  C          0.31587000       0.82598000       0.79906000
   198  C          0.68413000       0.17402000       0.20094000
   199  H          0.26050000       0.80490000       0.75910000
   200  H          0.73950000       0.19510000       0.24090000
   201  C          0.48296000       0.64996000       0.03603000
   202  C          0.51704000       0.35004000       0.96397000
   203  C          0.55075000       0.58525000       0.13443000
   204  C          0.44925000       0.41475000       0.86557000
   205  H          0.49240000       0.51920000       0.11620000
   206  H          0.50760000       0.48080000       0.88380000
   207  C          0.56245000       0.66786000       0.10163000
   208  C          0.43755000       0.33214000       0.89837000
   209  C          0.39098000       0.92798000       0.81855000
   210  C          0.60902000       0.07202000       0.18145000
   211  H          0.38660000       0.97680000       0.79230000
   212  H          0.61340000       0.02320000       0.20770000
   213  C          0.64896000       0.76286000       0.13013000
   214  C          0.35104000       0.23714000       0.86987000
   215  H          0.66120000       0.82020000       0.10900000
   216  H          0.33880000       0.17980000       0.89100000
   217  C          0.48725000       0.72605000      -0.00203000
   218  C          0.51275000       0.27395000       0.00203000
   219  H          0.54440000       0.79310000       0.01270000
   220  H          0.45560000       0.20690000       0.98730000
   221  C          0.47357000       0.96017000       0.87696000
   222  C          0.52643000       0.03983000       0.12304000
   223  H          0.52570000       0.03050000       0.89020000
   224  H          0.47430000       0.96950000       0.10980000
   225  C          0.40326000       0.78296000       0.89696000
   226  C          0.59674000       0.21704000       0.10304000
   227  C          0.31936000       0.75026000       0.83816000
   228  C          0.68064000       0.24974000       0.16184000
   229  H          0.26660000       0.68020000       0.82490000
   230  H          0.73340000       0.31980000       0.17510000
   231  C          0.71786000       0.77126000       0.19144000
   232  C          0.28214000       0.22874000       0.80856000
   233  H          0.77570000       0.83730000       0.21160000
   234  H          0.22430000       0.16270000       0.78840000
   235  C          0.62637000       0.60116000       0.19454000
   236  C          0.37363000       0.39884000       0.80546000
   237  H          0.61910000       0.54400000       0.21550000
   238  H          0.38090000       0.45600000       0.78450000
   239  C          0.40776000       0.70396000       0.93826000
   240  C          0.59224000       0.29604000       0.06174000
