data_AWUWAT
_symmetry_space_group_name_H-M    'P1'
_symmetry_Int_Tables_number       1
loop_
_symmetry_equiv_pos_site_id
_symmetry_equiv_pos_as_xyz
1 x,y,z
_cell_length_a                   6.37416
_cell_length_b                   11.66591
_cell_length_c                   12.472213
_cell_angle_alpha                109.1369
_cell_angle_beta                 103.3578
_cell_angle_gamma                104.7727
loop_
_atom_site_label
_atom_site_type_symbol
_atom_site_fract_x
_atom_site_fract_y
_atom_site_fract_z
     1  I          0.95364600       0.78513400       0.71318400
     2  I          0.04635400       0.21486600       0.28681600
     3  F          0.10946000       0.42014000       0.54584000
     4  F          0.89054000       0.57986000       0.45416000
     5  F          0.44856000       0.63623000       0.70674000
     6  F          0.55144000       0.36377000       0.29326000
     7  C          0.68119000       0.61545000       0.58735000
     8  C          0.31881000       0.38455000       0.41265000
     9  C          0.30259000       0.45875000       0.52086000
    10  C          0.69741000       0.54125000       0.47914000
    11  C          0.47709000       0.56925000       0.60415000
    12  C          0.52291000       0.43075000       0.39585000
    13  O          0.88328000       0.68394000       0.06584000
    14  O          0.11672000       0.31606000       0.93416000
    15  O          0.57858000       0.48024000       0.90795000
    16  O          0.42142000       0.51976000       0.09205000
    17  C          0.70831000       0.46715000       0.84545000
    18  C          0.29169000       0.53285000       0.15455000
    19  C          0.22829000       0.77865000       0.04175000
    20  C          0.77171000       0.22135000       0.95825000
    21  C          0.26991100       0.89086000       0.13866000
    22  C          0.73008900       0.10914000       0.86134000
    23  H          0.15960000       0.89860000       0.17530000
    24  H          0.84040000       0.10140000       0.82470000
    25  C          0.64021200       0.21436000       0.54836000
    26  C          0.35978800       0.78564000       0.45164000
    27  H          0.72530000       0.19630000       0.49770000
    28  H          0.27470000       0.80370000       0.50230000
    29  C          0.61439000       0.35155000       0.73045000
    30  C          0.38561000       0.64845000       0.26955000
    31  C          0.40051000       0.77275000      -0.00544000
    32  C          0.59949000       0.22725000       0.00544000
    33  H          0.38010000       0.69810000       0.92940000
    34  H          0.61990000       0.30190000       0.07060000
    35  N          0.64301000      -0.01375000       0.13606000
    36  N          0.35699000       0.01375000       0.86394000
    37  C          0.60401000       0.87786000       0.04376000
    38  C          0.39599000       0.12214000       0.95624000
    39  H          0.71940000       0.87210000       0.01050000
    40  H          0.28060000       0.12790000      -0.01050000
    41  C          0.00631000       0.67145000      -0.00414000
    42  C         -0.00631000       0.32855000       0.00414000
    43  C          0.73781100       0.32365000       0.65556000
    44  C          0.26218900       0.67635000       0.34444000
    45  H          0.88880000       0.37880000       0.67710000
    46  H          0.11120000       0.62120000       0.32290000
    47  C          0.93079000       0.56535000       0.88755000
    48  C          0.06921000       0.43465000       0.11245000
    49  H          0.02560000       0.55750000       0.84110000
    50  H         -0.02560000       0.44250000       0.15890000
    51  C          0.47551400      -0.00924000       0.18026000
    52  C          0.52448600       0.00924000       0.81974000
    53  H          0.49900000       0.06710000       0.24410000
    54  H          0.50100000       0.93290000       0.75590000
    55  C          0.29911300       0.15966000       0.59187000
    56  C          0.70088700       0.84034000       0.40813000
    57  H          0.14900000       0.10320000       0.57040000
    58  H          0.85100000       0.89680000       0.42960000
    59  C          0.39221000       0.26696000       0.69786000
    60  C          0.60779000       0.73304000       0.30214000
    61  H          0.30650000       0.28330000       0.74830000
    62  H          0.69350000       0.71670000       0.25170000
    63  C          0.42031300       0.13266000       0.51606000
    64  C          0.57968700       0.86734000       0.48394000
    65  H          0.35330000       0.05920000       0.44320000
    66  H          0.64670000       0.94080000       0.55680000
    67  H          0.73419000       0.59410000       0.01910000
    68  H          0.26581000       0.40590000       0.98090000
