data_AWUWEX
_symmetry_space_group_name_H-M    'P1'
_symmetry_Int_Tables_number       1
loop_
_symmetry_equiv_pos_site_id
_symmetry_equiv_pos_as_xyz
1 x,y,z
_cell_length_a                   22.1212
_cell_length_b                   9.32238
_cell_length_c                   10.62881
_cell_angle_alpha                90.0
_cell_angle_beta                 92.3559
_cell_angle_gamma                90.0
loop_
_atom_site_label
_atom_site_type_symbol
_atom_site_fract_x
_atom_site_fract_y
_atom_site_fract_z
     1  I          0.76863200       0.18927500       0.71831400
     2  I          0.23136800       0.68927500       0.78168600
     3  I          0.23136800       0.81072500       0.28168600
     4  I          0.76863200       0.31072500       0.21831400
     5  I          0.95027300       0.00871600       0.33423500
     6  I          0.04972700       0.50871600       0.16576500
     7  I          0.04972700      -0.00871600       0.66576500
     8  I          0.95027300       0.49128400       0.83423500
     9  I          0.90756300       0.63206600       0.43563600
    10  I          0.09243700       0.13206600       0.06436400
    11  I          0.09243700       0.36793400       0.56436400
    12  I          0.90756300       0.86793400       0.93563600
    13  F          0.81812000       0.48174000       0.61794000
    14  F          0.18188000       0.98174000       0.88206000
    15  F          0.18188000       0.51826000       0.38206000
    16  F          0.81812000       0.01826000       0.11794000
    17  F          0.85382000      -0.00374000       0.54984000
    18  F          0.14618000       0.49626000       0.95016000
    19  F          0.14618000       0.00374000       0.45016000
    20  F          0.85382000       0.50374000       0.04984000
    21  F          0.95802000       0.34295000       0.32414000
    22  F          0.04198000       0.84295000       0.17586000
    23  F          0.04198000       0.65705000       0.67586000
    24  F          0.95802000       0.15705000       0.82414000
    25  C          0.88963000       0.41968000       0.47417000
    26  C          0.11037000       0.91968000       0.02583000
    27  C          0.11037000       0.58032000       0.52583000
    28  C          0.88963000       0.08032000       0.97417000
    29  C          0.90693000       0.16718000       0.43646000
    30  C          0.09307000       0.66718000       0.06354000
    31  C          0.09307000       0.83282000       0.56354000
    32  C          0.90693000       0.33282000       0.93646000
    33  C          0.86623000       0.13567000       0.52346000
    34  C          0.13377000       0.63567000       0.97654000
    35  C          0.13377000       0.86433000       0.47654000
    36  C          0.86623000       0.36433000       0.02346000
    37  C          0.91813000       0.30878000       0.41297000
    38  C          0.08187000       0.80878000       0.08703000
    39  C          0.08187000       0.69122000       0.58703000
    40  C          0.91813000       0.19122000       0.91297000
    41  C          0.84773000       0.37958000       0.55876000
    42  C          0.15227000       0.87958000       0.94124000
    43  C          0.15227000       0.62042000       0.44124000
    44  C          0.84773000       0.12042000       0.05876000
    45  C          0.83393000       0.23948000       0.58786000
    46  C          0.16607000       0.73948000       0.91214000
    47  C          0.16607000       0.76052000       0.41214000
    48  C          0.83393000       0.26052000       0.08786000
    49  C          0.47314000       0.61098000       0.36677000
    50  C          0.52686000       0.11098000       0.13323000
    51  C          0.52686000       0.38902000       0.63323000
    52  C          0.47314000       0.88902000       0.86677000
    53  O          0.56563000       0.57997000       0.20176000
    54  O          0.43437000       0.07997000       0.29824000
    55  O          0.43437000       0.42003000       0.79824000
    56  O          0.56563000       0.92003000       0.70176000
    57  O          0.46443000       0.51667000       0.27717000
    58  O          0.53557000       0.01667000       0.22283000
    59  O          0.53557000       0.48333000       0.72283000
    60  O          0.46443000       0.98333000       0.77717000
    61  C          0.37124000       0.53728000       0.43527000
    62  C          0.62876000       0.03728000       0.06473000
    63  C          0.62876000       0.46272000       0.56473000
    64  C          0.37124000       0.96272000       0.93527000
    65  H          0.36990000       0.46760000       0.37240000
    66  H          0.63010000       0.96760000       0.12760000
    67  H          0.63010000       0.53240000       0.62760000
    68  H          0.36990000       0.03240000       0.87240000
    69  C          0.42064000       0.72481000       0.54578000
    70  C          0.57936000       0.22481000       0.95422000
    71  C          0.57936000       0.27519000       0.45422000
    72  C          0.42064000       0.77519000       0.04578000
    73  H          0.45360000       0.78460000       0.56220000
    74  H          0.54640000       0.28460000       0.93780000
    75  H          0.54640000       0.21540000       0.43780000
    76  H          0.45360000       0.71540000       0.06220000
    77  C          0.70064000       0.91031100       0.40558000
    78  C          0.29936000       0.41031100       0.09442000
    79  C          0.29936000       0.08968900       0.59442000
    80  C          0.70064000       0.58968900       0.90558000
    81  H          0.70800000       0.98430000       0.46280000
    82  H          0.29200000       0.48430000       0.03720000
    83  H          0.29200000       0.01570000       0.53720000
    84  H          0.70800000       0.51570000       0.96280000
    85  C          0.74644000       0.86251100       0.33129000
    86  C          0.25356000       0.36251100       0.16871000
    87  C          0.25356000       0.13748900       0.66871000
    88  C          0.74644000       0.63748900       0.83129000
    89  H          0.78440000       0.90550000       0.33760000
    90  H          0.21560000       0.40550000       0.16240000
    91  H          0.21560000       0.09450000       0.66240000
    92  H          0.78440000       0.59450000       0.83760000
    93  N          0.32353000       0.64558000       0.60396000
    94  N          0.67647000       0.14558000       0.89604000
    95  N          0.67647000       0.35442000       0.39604000
    96  N          0.32353000       0.85442000       0.10396000
    97  C          0.32464000       0.55038000       0.51157000
    98  C          0.67536000       0.05038000      -0.01157000
    99  C          0.67536000       0.44962000       0.48843000
   100  C          0.32464000       0.94962000       0.01157000
   101  H          0.29150000       0.48980000       0.49880000
   102  H          0.70850000      -0.01020000       0.00120000
   103  H          0.70850000       0.51020000       0.50120000
   104  H          0.29150000       0.01020000      -0.00120000
   105  C          0.42153000       0.62697000       0.44916000
   106  C          0.57847000       0.12697000       0.05084000
   107  C          0.57847000       0.37303000       0.55084000
   108  C          0.42153000       0.87303000       0.94916000
   109  C          0.57313000       0.66658000       0.29367000
   110  C          0.42687000       0.16658000       0.20633000
   111  C          0.42687000       0.33342000       0.70633000
   112  C          0.57313000       0.83342000       0.79367000
   113  C          0.52623000       0.68588000       0.37917000
   114  C          0.47377000       0.18588000       0.12083000
   115  C          0.47377000       0.31412000       0.62083000
   116  C          0.52623000       0.81412000       0.87917000
   117  H          0.53160000       0.75080000       0.44500000
   118  H          0.46840000       0.25080000       0.05500000
   119  H          0.46840000       0.24920000       0.55500000
   120  H          0.53160000       0.74920000       0.94500000
   121  C          0.63293000       0.73778000       0.30936000
   122  C          0.36707000       0.23778000       0.19064000
   123  C          0.36707000       0.26222000       0.69064000
   124  C          0.63293000       0.76222000       0.80936000
   125  C          0.37034000       0.73351100       0.61809000
   126  C          0.62966000       0.23351100       0.88191000
   127  C          0.62966000       0.26648900       0.38191000
   128  C          0.37034000       0.76648900       0.11809000
   129  H          0.36920000       0.80450000       0.67940000
   130  H          0.63080000       0.30450000       0.82060000
   131  H          0.63080000       0.19550000       0.32060000
   132  H          0.36920000       0.69550000       0.17940000
   133  C          0.67994000       0.69009000       0.23618000
   134  C          0.32006000       0.19009000       0.26382000
   135  C          0.32006000       0.30991000       0.76382000
   136  C          0.67994000       0.80991000       0.73618000
   137  H          0.67320000       0.61580000       0.17870000
   138  H          0.32680000       0.11580000       0.32130000
   139  H          0.32680000       0.38420000       0.82130000
   140  H          0.67320000       0.88420000       0.67870000
   141  C          0.73604000       0.75251100       0.24869000
   142  C          0.26396000       0.25251100       0.25131000
   143  C          0.26396000       0.24748900       0.75131000
   144  C          0.73604000       0.74748900       0.74869000
   145  H          0.76730000       0.71950000       0.20030000
   146  H          0.23270000       0.21950000       0.29970000
   147  H          0.23270000       0.28050000       0.79970000
   148  H          0.76730000       0.78050000       0.70030000
   149  C          0.64434000       0.84849000       0.39478000
   150  C          0.35566000       0.34849000       0.10522000
   151  C          0.35566000       0.15151000       0.60522000
   152  C          0.64434000       0.65151000       0.89478000
   153  H          0.61360000       0.88070000       0.44470000
   154  H          0.38640000       0.38070000       0.05530000
   155  H          0.38640000       0.11930000       0.55530000
   156  H          0.61360000       0.61930000       0.94470000
   157  H          0.48840000       0.51880000       0.22770000
   158  H          0.51160000       0.01880000       0.27230000
   159  H          0.51160000       0.48120000       0.77230000
   160  H          0.48840000       0.98120000       0.72770000
