data_AXOKIK
_symmetry_space_group_name_H-M    'P1'
_symmetry_Int_Tables_number       1
loop_
_symmetry_equiv_pos_site_id
_symmetry_equiv_pos_as_xyz
1 x,y,z
_cell_length_a                   7.08613
_cell_length_b                   15.20446
_cell_length_c                   16.80907
_cell_angle_alpha                90.0
_cell_angle_beta                 90.0
_cell_angle_gamma                90.0
loop_
_atom_site_label
_atom_site_type_symbol
_atom_site_fract_x
_atom_site_fract_y
_atom_site_fract_z
     1  I          0.50000000       0.37092200       0.25000000
     2  I          0.00000000       0.12907800       0.75000000
     3  I          0.50000000       0.62907800       0.75000000
     4  I         -0.00000000       0.87092200       0.25000000
     5  O          0.34803000       0.09015140       0.05356100
     6  O          0.15197000       0.40984860       0.55356100
     7  O          0.65197000       0.09015140       0.44643900
     8  O          0.84803000       0.40984860       0.94643900
     9  O          0.65197000       0.90984860       0.94643900
    10  O          0.84803000       0.59015140       0.44643900
    11  O          0.34803000       0.90984860       0.55356100
    12  O          0.15197000       0.59015140       0.05356100
    13  N          0.39623000       0.04834130       0.11162110
    14  N          0.10377000       0.45165870       0.61162110
    15  N          0.60377000       0.04834130       0.38837890
    16  N          0.89623000       0.45165870       0.88837890
    17  N          0.60377000       0.95165870       0.88837890
    18  N          0.89623000       0.54834130       0.38837890
    19  N          0.39623000       0.95165870       0.61162110
    20  N          0.10377000       0.54834130       0.11162110
    21  O          0.40074000       0.96835880       0.11468120
    22  O          0.09926000       0.53164120       0.61468120
    23  O          0.59926000       0.96835880       0.38531880
    24  O          0.90074000       0.53164120       0.88531880
    25  O          0.59926000       0.03164120       0.88531880
    26  O          0.90074000       0.46835880       0.38531880
    27  O          0.40074000       0.03164120       0.61468120
    28  O          0.09926000       0.46835880       0.11468120
    29  C          0.50000000       0.23344180       0.25000000
    30  C          0.00000000       0.26655820       0.75000000
    31  C          0.50000000       0.76655820       0.75000000
    32  C          0.00000000       0.73344180       0.25000000
    33  C          0.45033000       0.09729130       0.18371120
    34  C          0.04967000       0.40270870       0.68371120
    35  C          0.54967000       0.09729130       0.31628880
    36  C          0.95033000       0.40270870       0.81628880
    37  C          0.54967000       0.90270870       0.81628880
    38  C          0.95033000       0.59729130       0.31628880
    39  C          0.45033000       0.90270870       0.68371120
    40  C          0.04967000       0.59729130       0.18371120
    41  C          0.44883000       0.18789130       0.18186120
    42  C          0.05117000       0.31210870       0.68186120
    43  C          0.55117000       0.18789130       0.31813880
    44  C          0.94883000       0.31210870       0.81813880
    45  C          0.55117000       0.81210870       0.81813880
    46  C          0.94883000       0.68789130       0.31813880
    47  C          0.44883000       0.81210870       0.68186120
    48  C          0.05117000       0.68789130       0.18186120
    49  H          0.41424300       0.21786000       0.13588000
    50  H          0.08575700       0.28214000       0.63588000
    51  H          0.58575700       0.21786000       0.36412000
    52  H          0.91424300       0.28214000       0.86412000
    53  H          0.58575700       0.78214000       0.86412000
    54  H          0.91424300       0.71786000       0.36412000
    55  H          0.41424300       0.78214000       0.63588000
    56  H          0.08575700       0.71786000       0.13588000
    57  C          0.50000000       0.04962000       0.25000000
    58  C          0.00000000       0.45038000       0.75000000
    59  C          0.50000000       0.95038000       0.75000000
    60  C          0.00000000       0.54962000       0.25000000
    61  H          0.49999700       0.98848300       0.25000000
    62  H          0.00000300       0.51151700       0.75000000
    63  H          0.50000300       0.01151700       0.75000000
    64  H         -0.00000300       0.48848300       0.25000000
    65  N          0.50000000       0.57296160       0.25000000
    66  N         -0.00000000       0.92703840       0.75000000
    67  N          0.50000000       0.42703840       0.75000000
    68  N         -0.00000000       0.07296160       0.25000000
    69  C          0.45023000       0.61849130       0.31568120
    70  C          0.04977000       0.88150870       0.81568120
    71  C          0.54977000       0.61849130       0.18431880
    72  C          0.95023000       0.88150870       0.68431880
    73  C          0.54977000       0.38150870       0.68431880
    74  C          0.95023000       0.11849130       0.18431880
    75  C          0.45023000       0.38150870       0.81568120
    76  C          0.04977000       0.11849130       0.31568120
    77  C          0.44953000       0.71222130       0.31855130
    78  C          0.05047000       0.78777870       0.81855130
    79  C          0.55047000       0.71222130       0.18144870
    80  C          0.94953000       0.78777870       0.68144870
    81  C          0.55047000       0.28777870       0.68144870
    82  C          0.94953000       0.21222130       0.18144870
    83  C          0.44953000       0.28777870       0.81855130
    84  C          0.05047000       0.21222130       0.31855130
    85  C          0.50000000       0.75772000       0.25000000
    86  C         -0.00000000       0.74228000       0.75000000
    87  C          0.50000000       0.24228000       0.75000000
    88  C         -0.00000000       0.25772000       0.25000000
    89  H          0.50000100       0.81885000       0.25000000
    90  H         -0.00000100       0.68115000       0.75000000
    91  H          0.49999900       0.18115000       0.75000000
    92  H          0.00000100       0.31885000       0.25000000
    93  C          0.39643000       0.57118160       0.38519130
    94  C          0.10357000       0.92881840       0.88519130
    95  C          0.60357000       0.57118160       0.11480870
    96  C          0.89643000       0.92881840       0.61480870
    97  C          0.60357000       0.42881840       0.61480870
    98  C          0.89643000       0.07118160       0.11480870
    99  C          0.39643000       0.42881840       0.88519130
   100  C          0.10357000       0.07118160       0.38519130
   101  H          0.39795200       0.51001900       0.38497100
   102  H          0.10204800       0.98998100       0.88497100
   103  H          0.60204800       0.51001900       0.11502900
   104  H          0.89795200       0.98998100       0.61502900
   105  H          0.60204800       0.48998100       0.61502900
   106  H          0.89795200       0.01001900       0.11502900
   107  H          0.39795200       0.48998100       0.88497100
   108  H          0.10204800       0.01001900       0.38497100
   109  C          0.39363000       0.75486170       0.39020150
   110  C          0.10637000       0.74513830       0.89020150
   111  C          0.60637000       0.75486170       0.10979850
   112  C          0.89363000       0.74513830       0.60979850
   113  C          0.60637000       0.24513830       0.60979850
   114  C          0.89363000       0.25486170       0.10979850
   115  C          0.39363000       0.24513830       0.89020150
   116  C          0.10637000       0.25486170       0.39020150
   117  H          0.39373600       0.81594400       0.39304300
   118  H          0.10626400       0.68405600       0.89304300
   119  H          0.60626400       0.81594400       0.10695700
   120  H          0.89373600       0.68405600       0.60695700
   121  H          0.60626400       0.18405600       0.60695700
   122  H          0.89373600       0.31594400       0.10695700
   123  H          0.39373600       0.18405600       0.89304300
   124  H          0.10626400       0.31594400       0.39304300
   125  C          0.34064000       0.70712000       0.45390150
   126  C          0.15936000       0.79288000       0.95390150
   127  C          0.65936000       0.70712000       0.04609850
   128  C          0.84064000       0.79288000       0.54609850
   129  C          0.65936000       0.29288000       0.54609850
   130  C          0.84064000       0.20712000       0.04609850
   131  C          0.34064000       0.29288000       0.95390150
   132  C          0.15936000       0.20712000       0.45390150
   133  H          0.30183000       0.73561900       0.50002000
   134  H          0.19817000       0.76438100       0.00002000
   135  H          0.69817000       0.73561900      -0.00002000
   136  H          0.80183000       0.76438100       0.49998000
   137  H          0.69817000       0.26438100       0.49998000
   138  H          0.80183000       0.23561900      -0.00002000
   139  H          0.30183000       0.26438100       0.00002000
   140  H          0.19817000       0.23561900       0.50002000
   141  C          0.34304000       0.61502000       0.45162140
   142  C          0.15696000       0.88498000       0.95162140
   143  C          0.65696000       0.61502000       0.04837860
   144  C          0.84304000       0.88498000       0.54837860
   145  C          0.65696000       0.38498000       0.54837860
   146  C          0.84304000       0.11502000       0.04837860
   147  C          0.34304000       0.38498000       0.95162140
   148  C          0.15696000       0.11502000       0.45162140
   149  H          0.30722900       0.58343800       0.49652700
   150  H          0.19277100       0.91656200      -0.00347300
   151  H          0.69277100       0.58343800       0.00347300
   152  H          0.80722900       0.91656200       0.50347300
   153  H          0.69277100       0.41656200       0.50347300
   154  H          0.80722900       0.08343800       0.00347300
   155  H          0.30722900       0.41656200      -0.00347300
   156  H          0.19277100       0.08343800       0.49652700
