data_AXOKEG
_symmetry_space_group_name_H-M    'P1'
_symmetry_Int_Tables_number       1
loop_
_symmetry_equiv_pos_site_id
_symmetry_equiv_pos_as_xyz
1 x,y,z
_cell_length_a                   4.31528
_cell_length_b                   6.193012
_cell_length_c                   14.0163
_cell_angle_alpha                82.3406
_cell_angle_beta                 87.0496
_cell_angle_gamma                83.4656
loop_
_atom_site_label
_atom_site_type_symbol
_atom_site_fract_x
_atom_site_fract_y
_atom_site_fract_z
     1  I          0.28886800       0.33182500       0.80202300
     2  I          0.71113200       0.66817500       0.19797700
     3  F          0.95651000       0.89415000       0.81943000
     4  F          0.04349000       0.10585000       0.18057000
     5  F          0.71961000       0.64544000       0.96993000
     6  F          0.28039000       0.35456000       0.03007000
     7  C         -0.02191400       0.95121000       0.90874000
     8  C          0.02191400       0.04879000       0.09126000
     9  C          0.11851300       0.13359000       0.91965000
    10  C          0.88148700       0.86641000       0.08035000
    11  C          0.85908600       0.81771000       0.98685000
    12  C          0.14091400       0.18229000       0.01315000
    13  C          0.61211400       0.75901000       0.63725000
    14  C          0.38788600       0.24099000       0.36275000
    15  H          0.54420000       0.82180100       0.69231900
    16  H          0.45580000       0.17819900       0.30768100
    17  C          0.81241400       0.88539000       0.56464000
    18  C          0.18758600       0.11461000       0.43536000
    19  C          0.09321500       0.92069000       0.41385000
    20  C          0.90678500       0.07931000       0.58615000
    21  H          0.15699300       0.86946100       0.35573200
    22  H          0.84300700       0.13053900       0.64426800
    23  C          0.90461400       0.80409000       0.47885000
    24  C          0.09538600       0.19591000       0.52115000
    25  H          0.84028300       0.67322100       0.46542900
    26  H          0.15971700       0.32677900       0.53457100
    27  O          0.53411200       0.58577000       0.62964000
    28  O          0.46588800       0.41423000       0.37036000
