data_AXOPEJ
_symmetry_space_group_name_H-M    'P1'
_symmetry_Int_Tables_number       1
loop_
_symmetry_equiv_pos_site_id
_symmetry_equiv_pos_as_xyz
1 x,y,z
_cell_length_a                   14.525216
_cell_length_b                   6.96308
_cell_length_c                   23.6653
_cell_angle_alpha                90.0
_cell_angle_beta                 102.0295
_cell_angle_gamma                90.0
loop_
_atom_site_label
_atom_site_type_symbol
_atom_site_fract_x
_atom_site_fract_y
_atom_site_fract_z
     1  C          0.67840100       0.84368000       0.29842700
     2  C          0.82159900       0.34368000       0.20157300
     3  C          0.32159900       0.15632000       0.70157300
     4  C          0.17840100       0.65632000       0.79842700
     5  C          0.62103100       0.00262000       0.28585700
     6  C          0.87896900       0.50262000       0.21414300
     7  C          0.37896900      -0.00262000       0.71414300
     8  C          0.12103100       0.49738000       0.78585700
     9  C          0.52388900      -0.01422000       0.28286600
    10  C          0.97611100       0.48578000       0.21713400
    11  C          0.47611100       0.01422000       0.71713400
    12  C          0.02388900       0.51422000       0.78286600
    13  C          0.48977100       0.80288000       0.29065600
    14  C          0.01022900       0.30288000       0.20934400
    15  C          0.51022900       0.19712000       0.70934400
    16  C         -0.01022900       0.69712000       0.79065600
    17  C          0.55219100       0.65248000       0.30323700
    18  C          0.94780900       0.15248000       0.19676300
    19  C          0.44780900       0.34752000       0.69676300
    20  C          0.05219100       0.84752000       0.80323700
    21  C          0.45955900       0.15421190       0.26819600
    22  C          0.04044100       0.65421190       0.23180400
    23  C          0.54044100       0.84578810       0.73180400
    24  C          0.95955900       0.34578810       0.76819600
    25  C          0.45829100       0.23392000       0.21484600
    26  C          0.04170900       0.73392000       0.28515400
    27  C          0.54170900       0.76608000       0.78515400
    28  C          0.95829100       0.26608000       0.71484600
    29  C          0.39490100       0.38192000       0.19203700
    30  C          0.10509900       0.88192000       0.30796300
    31  C          0.60509900       0.61808000       0.80796300
    32  C          0.89490100       0.11808000       0.69203700
    33  C          0.33355100       0.44902000       0.22361600
    34  C          0.16644900       0.94902000       0.27638400
    35  C          0.66644900       0.55098000       0.77638400
    36  C          0.83355100       0.05098000       0.72361600
    37  C          0.33301900       0.37603180       0.27921600
    38  C          0.16698100       0.87603180       0.22078400
    39  C          0.66698100       0.62396820       0.72078400
    40  C          0.83301900       0.12396820       0.77921600
    41  C          0.26680100       0.45002000       0.30997600
    42  C          0.23319900       0.95002000       0.19002400
    43  C          0.73319900       0.54998000       0.69002400
    44  C          0.76680100       0.04998000       0.80997600
    45  C          0.26167110       0.38102000       0.36266700
    46  C          0.23832890       0.88102000       0.13733300
    47  C          0.73832890       0.61898000       0.63733300
    48  C          0.76167110       0.11898000       0.86266700
    49  C          0.32501100       0.23832000       0.38809600
    50  C          0.17498900       0.73832000       0.11190400
    51  C          0.67498900       0.76168000       0.61190400
    52  C          0.82501100       0.26168000       0.88809600
    53  C          0.39321100       0.16332000       0.36119600
    54  C          0.10678900       0.66332000       0.13880400
    55  C          0.60678900       0.83668000       0.63880400
    56  C          0.89321100       0.33668000       0.86119600
    57  C          0.39747900       0.22660190       0.30383600
    58  C          0.10252100       0.72660190       0.19616400
    59  C          0.60252100       0.77339810       0.69616400
    60  C          0.89747900       0.27339810       0.80383600
    61  C          0.45799100       0.01872000       0.39503600
    62  C          0.04200900       0.51872000       0.10496400
    63  C          0.54200900      -0.01872000       0.60496400
    64  C          0.95799100       0.48128000       0.89503600
    65  C          0.42203110       0.84838000       0.41272700
    66  C          0.07796890       0.34838000       0.08727300
    67  C          0.57796890       0.15162000       0.58727300
    68  C          0.92203110       0.65162000       0.91272700
    69  C          0.48309110       0.71258000       0.44211700
    70  C          0.01690890       0.21258000       0.05788300
    71  C          0.51690890       0.28742000       0.55788300
    72  C          0.98309110       0.78742000       0.94211700
    73  C          0.61130110       0.90318000       0.44115700
    74  C          0.88869890       0.40318000       0.05884300
    75  C          0.38869890       0.09682000       0.55884300
    76  C          0.11130110       0.59682000       0.94115700
    77  C          0.55524100       0.04732000       0.41170600
    78  C          0.94475900       0.54732000       0.08829400
    79  C          0.44475900       0.95268000       0.58829400
    80  C          0.05524100       0.45268000       0.91170600
    81  H          0.74260000       0.85820000       0.30040000
    82  H          0.75740000       0.35820000       0.19960000
    83  H          0.25740000       0.14180000       0.69960000
    84  H          0.24260000       0.64180000       0.80040000
    85  H          0.64680000       0.12080000       0.27940000
    86  H          0.85320000       0.62080000       0.22060000
    87  H          0.35320000       0.87920000       0.72060000
    88  H          0.14680000       0.37920000       0.77940000
    89  H          0.42560000       0.78260000       0.28740000
    90  H          0.07440000       0.28260000       0.21260000
    91  H          0.57440000       0.21740000       0.71260000
    92  H          0.92560000       0.71740000       0.78740000
    93  H          0.52830000       0.53170000       0.30890000
    94  H          0.97170000       0.03170000       0.19110000
    95  H          0.47170000       0.46830000       0.69110000
    96  H          0.02830000       0.96830000       0.80890000
    97  H          0.50040000       0.18900000       0.19320000
    98  H         -0.00040000       0.68900000       0.30680000
    99  H          0.49960000       0.81100000       0.80680000
   100  H          0.00040000       0.31100000       0.69320000
   101  H          0.39510000       0.43300000       0.15570000
   102  H          0.10490000       0.93300000       0.34430000
   103  H          0.60490000       0.56700000       0.84430000
   104  H          0.89510000       0.06700000       0.65570000
   105  H          0.29110000       0.54490000       0.20830000
   106  H          0.20890000       0.04490000       0.29170000
   107  H          0.70890000       0.45510000       0.79170000
   108  H          0.79110000       0.95510000       0.70830000
   109  H          0.22620000       0.54770000       0.29360000
   110  H          0.27380000       0.04770000       0.20640000
   111  H          0.77380000       0.45230000       0.70640000
   112  H          0.72620000       0.95230000       0.79360000
   113  H          0.21660000       0.42780000       0.38180000
   114  H          0.28340000       0.92780000       0.11820000
   115  H          0.78340000       0.57220000       0.61820000
   116  H          0.71660000       0.07220000       0.88180000
   117  H          0.32110000       0.19210000       0.42440000
   118  H          0.17890000       0.69210000       0.07560000
   119  H          0.67890000       0.80790000       0.57560000
   120  H          0.82110000       0.30790000       0.92440000
   121  H          0.35750000       0.82650000       0.40480000
   122  H          0.14250000       0.32650000       0.09520000
   123  H          0.64250000       0.17350000       0.59520000
   124  H          0.85750000       0.67350000       0.90480000
   125  H          0.45800000       0.59920000       0.45310000
   126  H          0.04200000       0.09920000       0.04690000
   127  H          0.54200000       0.40080000       0.54690000
   128  H          0.95800000       0.90080000       0.95310000
   129  H          0.67590000       0.92360000       0.45140000
   130  H          0.82410000       0.42360000       0.04860000
   131  H          0.32410000       0.07640000       0.54860000
   132  H          0.17590000       0.57640000       0.95140000
   133  H          0.58200000       0.16210000       0.40310000
   134  H          0.91800000       0.66210000       0.09690000
   135  H          0.41800000       0.83790000       0.59690000
   136  H          0.08200000       0.33790000       0.90310000
   137  N          0.64562900       0.66993820       0.30782600
   138  N          0.85437100       0.16993820       0.19217400
   139  N          0.35437100       0.33006180       0.69217400
   140  N          0.14562900       0.83006180       0.80782600
   141  N          0.57705900       0.73622810       0.45559600
   142  N          0.92294100       0.23622810       0.04440400
   143  N          0.42294100       0.26377190       0.54440400
   144  N          0.07705900       0.76377190       0.95559600
   145  C          0.64456100       0.96528000       0.13947600
   146  C          0.85543900       0.46528000       0.36052400
   147  C          0.35543900       0.03472000       0.86052400
   148  C          0.14456100       0.53472000       0.63947600
   149  C          0.57049100       0.81878000       0.11659700
   150  C          0.92950900       0.31878000       0.38340300
   151  C          0.42950900       0.18122000       0.88340300
   152  C          0.07049100       0.68122000       0.61659700
   153  C          0.48728100       0.86538000       0.08198600
   154  C          0.01271900       0.36538000       0.41801400
   155  C          0.51271900       0.13462000       0.91801400
   156  C          0.98728100       0.63462000       0.58198600
   157  C          0.45483100       0.05442000       0.06094600
   158  C          0.04516900       0.55442000       0.43905400
   159  C          0.54516900       0.94558000       0.93905400
   160  C          0.95483100       0.44558000       0.56094600
   161  C          0.37001100       0.10362000       0.02842600
   162  C          0.12998900       0.60362000       0.47157400
   163  C          0.62998900       0.89638000       0.97157400
   164  C          0.87001100       0.39638000       0.52842600
   165  C          0.29409100       0.95958000       0.00685600
   166  C          0.20590900       0.45958000       0.49314400
   167  C          0.70590900       0.04042000       0.99314400
   168  C          0.79409100       0.54042000       0.50685600
   169  C          0.59426120       0.61358000       0.13390800
   170  C          0.90573880       0.11358000       0.36609200
   171  C          0.40573880       0.38642000       0.86609200
   172  C          0.09426120       0.88642000       0.63390800
   173  C          0.34622120       0.30952000       0.01320800
   174  C          0.15377880       0.80952000       0.48679200
   175  C          0.65377880       0.69048000       0.98679200
   176  C          0.84622120       0.19048000       0.51320800
   177  H          0.76840000       0.97720000       0.16460000
   178  H          0.73160000       0.47720000       0.33540000
   179  H          0.23160000       0.02280000       0.83540000
   180  H          0.26840000       0.52280000       0.66460000
   181  H          0.44590000       0.76430000       0.07020000
   182  H          0.05410000       0.26430000       0.42980000
   183  H          0.55410000       0.23570000       0.92980000
   184  H          0.94590000       0.73570000       0.57020000
   185  H          0.49760000       0.15420000       0.07100000
   186  H          0.00240000       0.65420000       0.42900000
   187  H          0.50240000       0.84580000       0.92900000
   188  H         -0.00240000       0.34580000       0.57100000
   189  H          0.54270000       0.53190000       0.11690000
   190  H          0.95730000       0.03190000       0.38310000
   191  H          0.45730000       0.46810000       0.88310000
   192  H          0.04270000       0.96810000       0.61690000
   193  H          0.60570000       0.60270000       0.17520000
   194  H          0.89430000       0.10270000       0.32480000
   195  H          0.39430000       0.39730000       0.82480000
   196  H          0.10570000       0.89730000       0.67520000
   197  H          0.64960000       0.57550000       0.12060000
   198  H          0.85040000       0.07550000       0.37940000
   199  H          0.35040000       0.42450000       0.87940000
   200  H          0.14960000       0.92450000       0.62060000
   201  H          0.29970000       0.35330000       0.03370000
   202  H          0.20030000       0.85330000       0.46630000
   203  H          0.70030000       0.64670000       0.96630000
   204  H          0.79970000       0.14670000       0.53370000
   205  H          0.32180000       0.32010000       0.97240000
   206  H          0.17820000       0.82010000       0.52760000
   207  H          0.67820000       0.67990000       0.02760000
   208  H          0.82180000       0.17990000       0.47240000
   209  H          0.40190000       0.38670000       0.02380000
   210  H          0.09810000       0.88670000       0.47620000
   211  H          0.59810000       0.61330000       0.97620000
   212  H          0.90190000       0.11330000       0.52380000
   213  H          0.16950000       0.95460000       0.98220000
   214  H          0.33050000       0.45460000       0.51780000
   215  H          0.83050000       0.04540000       0.01780000
   216  H          0.66950000       0.54540000       0.48220000
   217  O          0.73027700       0.89134850       0.15340600
   218  O          0.76972300       0.39134850       0.34659400
   219  O          0.26972300       0.10865150       0.84659400
   220  O          0.23027700       0.60865150       0.65340600
   221  O          0.62870700       0.13406150       0.14588500
   222  O          0.87129300       0.63406150       0.35411500
   223  O          0.37129300       0.86593850       0.85411500
   224  O          0.12870700       0.36593850       0.64588500
   225  O          0.20891700       0.03878150       0.99252500
   226  O          0.29108300       0.53878150       0.50747500
   227  O          0.79108300       0.96121850       0.00747500
   228  O          0.70891700       0.46121850       0.49252500
   229  O          0.30631800       0.78852840       0.00352500
   230  O          0.19368200       0.28852840       0.49647500
   231  O          0.69368200       0.21147160      -0.00352500
   232  O          0.80631800       0.71147160       0.50352500
