data_AXULOV
_symmetry_space_group_name_H-M    'P1'
_symmetry_Int_Tables_number       1
loop_
_symmetry_equiv_pos_site_id
_symmetry_equiv_pos_as_xyz
1 x,y,z
_cell_length_a                   10.90011
_cell_length_b                   10.95571
_cell_length_c                   12.69612
_cell_angle_alpha                96.68901
_cell_angle_beta                 114.13701
_cell_angle_gamma                112.16501
loop_
_atom_site_label
_atom_site_type_symbol
_atom_site_fract_x
_atom_site_fract_y
_atom_site_fract_z
     1  C          0.12562000       0.14242000       0.94506170
     2  C          0.87438000       0.85758000       0.05493830
     3  O          0.11634160       0.02732150       0.94101140
     4  O          0.88365840       0.97267850       0.05898860
     5  N          0.03718190       0.18146170       0.97852150
     6  N          0.96281810       0.81853830       0.02147850
     7  H         -0.01170000       0.12720000       0.00620000
     8  H          0.01170000       0.87280000      -0.00620000
     9  C          0.03092000       0.30582000       0.98248180
    10  C          0.96908000       0.69418000       0.01751820
    11  O          0.97143180       0.33879160       0.03519140
    12  O          0.02856820       0.66120840       0.96480860
    13  C          0.09912000       0.39002000       0.91572170
    14  C          0.90088000       0.60998000       0.08427830
    15  H          0.11970000       0.48770000       0.94680000
    16  H          0.88030000       0.51230000       0.05320000
    17  C          0.25222000       0.39252000       0.94819170
    18  C          0.74778000       0.60748000       0.05180830
    19  H          0.29390000       0.44380000       0.90050000
    20  H          0.70610000       0.55620000       0.09950000
    21  C          0.36142000       0.47222000       0.08210190
    22  C          0.63858000       0.52778000       0.91789810
    23  H          0.36540000       0.55710000       0.11430000
    24  H          0.63460000       0.44290000       0.88570000
    25  C          0.45212000       0.43112000       0.15742190
    26  C          0.54788000       0.56888000       0.84257810
    27  H          0.51340000       0.48550000       0.24110000
    28  H          0.48660000       0.51450000       0.75890000
    29  C          0.46272000       0.30322000       0.11712000
    30  C          0.53728000       0.69678000       0.88288000
    31  H          0.41150000       0.23020000       0.14580000
    32  H          0.58850000       0.76980000       0.85420000
    33  H          0.57110000       0.32500000       0.15480000
    34  H          0.42890000       0.67500000       0.84520000
    35  C          0.38982000       0.24792000       0.97925190
    36  C          0.61018000       0.75208000       0.02074810
    37  H          0.37620000       0.15250000       0.95510000
    38  H          0.62380000       0.84750000       0.04490000
    39  H          0.45810000       0.30740000       0.95280000
    40  H          0.54190000       0.69260000       0.04720000
    41  C          0.23482000       0.24568190       0.91530180
    42  C          0.76518000       0.75431810       0.08469820
    43  H          0.19430000       0.21180000       0.82540000
    44  H          0.80570000       0.78820000       0.17460000
    45  C         -0.02028000       0.33102000       0.77711180
    46  C          0.02028000       0.66898000       0.22288820
    47  H          0.93070000       0.22710000       0.75240000
    48  H          0.06930000       0.77290000       0.24760000
    49  C          0.05062000       0.37702000       0.69796180
    50  C          0.94938000       0.62298000       0.30203820
    51  C          0.10502000       0.51412000       0.69733190
    52  C          0.89498000       0.48588000       0.30266810
    53  H          0.09770000       0.58030000       0.74670000
    54  H          0.90230000       0.41970000       0.25330000
    55  C          0.16982000       0.55463000       0.62482000
    56  C          0.83018000       0.44537000       0.37518000
    57  H          0.20590000       0.64810000       0.62440000
    58  H          0.79410000       0.35190000       0.37560000
    59  C          0.18203000       0.45943000       0.55352000
    60  C          0.81797000       0.54057000       0.44648000
    61  H          0.22780000       0.48760000       0.50500000
    62  H          0.77220000       0.51240000       0.49500000
    63  C          0.12713000       0.32273000       0.55272000
    64  C          0.87287000       0.67727000       0.44728000
    65  H          0.13470000       0.25690000       0.50320000
    66  H          0.86530000       0.74310000       0.49680000
    67  C          0.06102000       0.28152000       0.62408190
    68  C          0.93898000       0.71848000       0.37591810
    69  H          0.02250000       0.18730000       0.62240000
    70  H         -0.02250000       0.81270000       0.37760000
    71  N          0.86427190       0.37326180       0.76485160
    72  N          0.13572810       0.62673820       0.23514840
    73  H          0.90430000       0.45731900       0.81520000
    74  H          0.09570000       0.54268100       0.18480000
    75  C          0.73112000       0.32802000       0.65597190
    76  C          0.26888000       0.67198000       0.34402810
    77  C          0.67362000       0.20982000       0.56002000
    78  C          0.32638000       0.79018000       0.43998000
    79  H          0.73170000       0.16220000       0.56460000
    80  H          0.26830000       0.83780000       0.43540000
    81  C          0.53183000       0.16112000       0.45762000
    82  C          0.46817000       0.83888000       0.54238000
    83  H          0.49330000       0.08040000       0.39300000
    84  H          0.50670000       0.91960000       0.60700000
    85  C          0.44662000       0.23022000       0.44988190
    86  C          0.55338000       0.76978000       0.55011810
    87  I          0.22603516       0.14793516       0.30120913
    88  I          0.77396484       0.85206484       0.69879087
    89  C          0.50472000       0.35132000       0.54242000
    90  C          0.49528000       0.64868000       0.45758000
    91  H          0.44740000       0.40010000       0.53590000
    92  H          0.55260000       0.59990000       0.46410000
    93  C          0.64632000       0.40042000       0.64379190
    94  C          0.35368000       0.59958000       0.35620810
    95  H          0.68670000       0.48430000       0.70600000
    96  H          0.31330000       0.51570000       0.29400000
    97  C          0.37153000       0.92377000       0.82763000
    98  C          0.62847000       0.07623000       0.17237000
    99  H          0.36410000       0.85900000       0.87130000
   100  H          0.63590000       0.14100000       0.12870000
   101  C          0.24184000       0.92027000       0.74313000
   102  C          0.75816000       0.07973000       0.25687000
   103  H          0.14490000       0.85460000       0.72830000
   104  H          0.85510000       0.14540000       0.27170000
   105  C          0.25454000       0.01563000       0.67853000
   106  C          0.74546000      -0.01563000       0.32147000
   107  H          0.16560000       0.01420000       0.61830000
   108  H          0.83440000      -0.01420000       0.38170000
   109  C          0.39654000       0.11143000       0.70263000
   110  C          0.60346000       0.88857000       0.29737000
   111  H          0.40470000       0.17610000       0.65880000
   112  H          0.59530000       0.82390000       0.34120000
   113  C          0.52634000       0.11463000       0.78913000
   114  C          0.47366000       0.88537000       0.21087000
   115  H          0.62360000       0.18170000       0.80570000
   116  H          0.37640000       0.81830000       0.19430000
   117  C          0.51424000       0.02033000       0.85113000
   118  C          0.48576000       0.97967000       0.14887000
   119  H          0.60320000       0.02090000       0.91000000
   120  H          0.39680000       0.97910000       0.09000000
