data_AXUNEO
_symmetry_space_group_name_H-M    'P1'
_symmetry_Int_Tables_number       1
loop_
_symmetry_equiv_pos_site_id
_symmetry_equiv_pos_as_xyz
1 x,y,z
_cell_length_a                   10.6812
_cell_length_b                   4.2212
_cell_length_c                   40.1078
_cell_angle_alpha                90.0
_cell_angle_beta                 92.853
_cell_angle_gamma                90.0
loop_
_atom_site_label
_atom_site_type_symbol
_atom_site_fract_x
_atom_site_fract_y
_atom_site_fract_z
     1  I          0.62024200       0.90097400       0.57812200
     2  I          0.87975800       0.40097400       0.92187800
     3  I          0.37975800       0.09902600       0.42187800
     4  I          0.12024200       0.59902600       0.07812200
     5  F          0.65013190       0.49416000       0.76088500
     6  F          0.84986810      -0.00584000       0.73911500
     7  F          0.34986810       0.50584000       0.23911500
     8  F          0.15013190       0.00584000       0.26088500
     9  F          0.23972000       0.67476000       0.71912500
    10  F          0.26028000       0.17476000       0.78087500
    11  F          0.76028000       0.32524000       0.28087500
    12  F          0.73972000       0.82524000       0.21912500
    13  C          0.38323000       0.43898000       0.68442800
    14  C          0.11677000       0.93898000       0.81557200
    15  C          0.61677000       0.56102000       0.31557200
    16  C          0.88323000       0.06102000       0.18442800
    17  H          0.31980000       0.42560000       0.66700000
    18  H          0.18020000       0.92560000       0.83300000
    19  H          0.68020000       0.57440000       0.33300000
    20  H          0.81980000       0.07440000       0.16700000
    21  C          0.35733000       0.56839000       0.71493900
    22  C          0.14267000       0.06839000       0.78506100
    23  C          0.64267000       0.43161000       0.28506100
    24  C          0.85733000       0.93161000       0.21493900
    25  C          0.44274000       0.59178000       0.74095800
    26  C          0.05726000       0.09178000       0.75904200
    27  C          0.55726000       0.40822000       0.25904200
    28  C          0.94274000       0.90822000       0.24095800
    29  H          0.42220000       0.68130000       0.76170000
    30  H          0.07780000       0.18130000       0.73830000
    31  H          0.57780000       0.31870000       0.23830000
    32  H          0.92220000       0.81870000       0.26170000
    33  C          0.56173000       0.47739000       0.73551800
    34  C          0.93827000      -0.02261000       0.76448200
    35  C          0.43827000       0.52261000       0.26448200
    36  C          0.06173000       0.02261000       0.23551800
    37  C          0.59553000       0.34708000       0.70582800
    38  C          0.90447000       0.84708000       0.79417200
    39  C          0.40447000       0.65292000       0.29417200
    40  C          0.09553000       0.15292000       0.20582800
    41  H          0.67830000       0.27220000       0.70320000
    42  H          0.82170000       0.77220000       0.79680000
    43  H          0.32170000       0.72780000       0.29680000
    44  H          0.17830000       0.22780000       0.20320000
    45  C          0.50453000       0.32748000       0.67952800
    46  C         -0.00453000       0.82748000       0.82047200
    47  C          0.49547000       0.67252000       0.32047200
    48  C          0.00453000       0.17252000       0.17952800
    49  C          0.53583000       0.19388000       0.64795800
    50  C          0.96417000       0.69388000       0.85204200
    51  C          0.46417000       0.80612000       0.35204200
    52  C          0.03583000       0.30612000       0.14795800
    53  C          0.56443000       0.08557000       0.62184800
    54  C          0.93557000       0.58557000       0.87815200
    55  C          0.43557000       0.91443000       0.37815200
    56  C          0.06443000       0.41443000       0.12184800
    57  S          0.95254700       0.02152000       0.42507200
    58  S          0.54745300       0.52152000       0.07492800
    59  S          0.04745300      -0.02152000       0.57492800
    60  S          0.45254700       0.47848000       0.92507200
    61  O          0.96522000       0.66484000       0.33298600
    62  O          0.53478000       0.16484000       0.16701400
    63  O          0.03478000       0.33516000       0.66701400
    64  O          0.46522000       0.83516000       0.83298600
    65  N          0.70173000       0.64567000       0.51908700
    66  N          0.79827000       0.14567000       0.98091300
    67  N          0.29827000       0.35433000       0.48091300
    68  N          0.20173000       0.85433000       0.01908700
    69  C          0.05624000       0.47151000       0.32115900
    70  C          0.44376000      -0.02849000       0.17884100
    71  C          0.94376000       0.52849000       0.67884100
    72  C          0.55624000       0.02849000       0.82115900
    73  H          0.05390000       0.38330000       0.29930000
    74  H          0.44610000       0.88330000       0.20070000
    75  H          0.94610000       0.61670000       0.70070000
    76  H          0.55390000       0.11670000       0.79930000
    77  C          0.14803000       0.42382000       0.34419900
    78  C          0.35197000       0.92382000       0.15580100
    79  C          0.85197000       0.57618000       0.65580100
    80  C          0.64803000       0.07618000       0.84419900
    81  H          0.22090000       0.29800000       0.34200000
    82  H          0.27910000       0.79800000       0.15800000
    83  H          0.77910000       0.70200000       0.65800000
    84  H          0.72090000       0.20200000       0.84200000
    85  C          0.11513000       0.60082000       0.37311900
    86  C          0.38487000       0.10082000       0.12688100
    87  C          0.88487000       0.39918000       0.62688100
    88  C          0.61513000       0.89918000       0.87311900
    89  H          0.16230000       0.61760000       0.39370000
    90  H          0.33770000       0.11760000       0.10630000
    91  H          0.83770000       0.38240000       0.60630000
    92  H          0.66230000       0.88240000       0.89370000
    93  C          0.00413000       0.73802000       0.36506700
    94  C          0.49587000       0.23802000       0.13493300
    95  C         -0.00413000       0.26198000       0.63493300
    96  C          0.50413000       0.76198000       0.86506700
    97  C          0.92163000       0.93813000       0.38334800
    98  C          0.57837000       0.43813000       0.11665200
    99  C          0.07837000       0.06187000       0.61665200
   100  C          0.42163000       0.56187000       0.88334800
   101  C          0.81143000       0.07497000       0.37209800
   102  C          0.68857000       0.57497000       0.12790200
   103  C          0.18857000       0.92503000       0.62790200
   104  C          0.31143000       0.42503000       0.87209800
   105  H          0.77870000       0.05740000       0.34970000
   106  H          0.72130000       0.55740000       0.15030000
   107  H          0.22130000       0.94260000       0.65030000
   108  H          0.27870000       0.44260000       0.84970000
   109  C          0.75083000       0.24448000       0.39701800
   110  C          0.74917000       0.74448000       0.10298200
   111  C          0.24917000       0.75552000       0.60298200
   112  C          0.25083000       0.25552000       0.89701800
   113  H          0.67350000       0.35270000       0.39310000
   114  H          0.82650000       0.85270000       0.10690000
   115  H          0.32650000       0.64730000       0.60690000
   116  H          0.17350000       0.14730000       0.89310000
   117  C          0.81463000       0.23677000       0.42739700
   118  C          0.68537000       0.73677000       0.07260300
   119  C          0.18537000       0.76323000       0.57260300
   120  C          0.31463000       0.26323000       0.92739700
   121  C          0.63723000       0.69028000       0.49015800
   122  C          0.86277000       0.19028000       0.00984200
   123  C          0.36277000       0.30972000       0.50984200
   124  C          0.13723000       0.80972000       0.99015800
   125  H          0.56320000       0.81490000       0.49030000
   126  H          0.93680000       0.31490000       0.00970000
   127  H          0.43680000       0.18510000       0.50970000
   128  H          0.06320000       0.68510000       0.99030000
   129  C          0.67143000       0.56598000       0.45981900
   130  C          0.82857000       0.06598000       0.04018100
   131  C          0.32857000       0.43402000       0.54018100
   132  C          0.17143000       0.93402000       0.95981900
   133  H          0.62180000       0.60720000       0.44000000
   134  H          0.87820000       0.10720000       0.06000000
   135  H          0.37820000       0.39280000       0.56000000
   136  H          0.12180000       0.89280000       0.94000000
   137  C          0.77883000       0.38057000       0.45876800
   138  C          0.72117000       0.88057000       0.04123200
   139  C          0.22117000       0.61943000       0.54123200
   140  C          0.27883000       0.11943000       0.95876800
   141  C          0.84733000       0.33578000       0.48912800
   142  C          0.65267000       0.83578000       0.01087200
   143  C          0.15267000       0.66422000       0.51087200
   144  C          0.34733000       0.16422000       0.98912800
   145  H          0.92190000       0.21290000       0.48990000
   146  H          0.57810000       0.71290000       0.01010000
   147  H          0.07810000       0.78710000       0.51010000
   148  H          0.42190000       0.28710000       0.98990000
   149  C          0.80533000       0.47189000       0.51796800
   150  C          0.69467000      -0.02811000       0.98203200
   151  C          0.19467000       0.52811000       0.48203200
   152  C          0.30533000       0.02811000       0.01796800
   153  H          0.85360000       0.43890000       0.53820000
   154  H          0.64640000       0.93890000       0.96180000
   155  H          0.14640000       0.56110000       0.46180000
   156  H          0.35360000       0.06110000       0.03820000
