data_AXURUI
_symmetry_space_group_name_H-M    'P1'
_symmetry_Int_Tables_number       1
loop_
_symmetry_equiv_pos_site_id
_symmetry_equiv_pos_as_xyz
1 x,y,z
_cell_length_a                   7.83049
_cell_length_b                   15.183418
_cell_length_c                   12.915215
_cell_angle_alpha                90.0
_cell_angle_beta                 103.1765
_cell_angle_gamma                90.0
loop_
_atom_site_label
_atom_site_type_symbol
_atom_site_fract_x
_atom_site_fract_y
_atom_site_fract_z
     1  N          0.09682000       0.51597100       0.27291120
     2  N          0.90318000       0.01597100       0.22708880
     3  N          0.90318000       0.48402900       0.72708880
     4  N          0.09682000       0.98402900       0.77291120
     5  N          0.14142000       0.60279100       0.28518130
     6  N          0.85858000       0.10279100       0.21481870
     7  N          0.85858000       0.39720900       0.71481870
     8  N          0.14142000       0.89720900       0.78518130
     9  N          0.31042000       0.60430110       0.32778140
    10  N          0.68958000       0.10430110       0.17221860
    11  N          0.68958000       0.39569890       0.67221860
    12  N          0.31042000       0.89569890       0.82778140
    13  C          0.37403000       0.52155130       0.34277160
    14  C          0.62597000       0.02155130       0.15722840
    15  C          0.62597000       0.47844870       0.65722840
    16  C          0.37403000       0.97844870       0.84277160
    17  H          0.49260000       0.50620000       0.37260000
    18  H          0.50740000       0.00620000       0.12740000
    19  H          0.50740000       0.49380000       0.62740000
    20  H          0.49260000      -0.00620000       0.87260000
    21  C          0.23852000       0.46258120       0.30764140
    22  C          0.76148000       0.96258120       0.19235860
    23  C          0.76148000       0.53741880       0.69235860
    24  C          0.23852000       0.03741880       0.80764140
    25  C          0.21663000       0.36939130       0.30065140
    26  C          0.78337000       0.86939130       0.19934860
    27  C          0.78337000       0.63060870       0.69934860
    28  C          0.21663000       0.13060870       0.80065140
    29  H          0.31420000       0.33130000       0.32330000
    30  H          0.68580000       0.83130000       0.17670000
    31  H          0.68580000       0.66870000       0.67670000
    32  H          0.31420000       0.16870000       0.82330000
    33  C          0.05523000       0.33633120       0.26133140
    34  C          0.94477000       0.83633120       0.23866860
    35  C          0.94477000       0.66366880       0.73866860
    36  C          0.05523000       0.16366880       0.76133140
    37  H          0.03940000       0.27430000       0.25770000
    38  H          0.96060000       0.77430000       0.24230000
    39  H          0.96060000       0.72570000       0.74230000
    40  H          0.03940000       0.22570000       0.75770000
    41  C          0.90698000       0.39253120       0.22492140
    42  C          0.09302000       0.89253120       0.27507860
    43  C          0.09302000       0.60746880       0.77507860
    44  C          0.90698000       0.10746880       0.72492140
    45  C          0.73857000       0.35987130       0.18210150
    46  C          0.26143000       0.85987130       0.31789850
    47  C          0.26143000       0.64012870       0.81789850
    48  C          0.73857000       0.14012870       0.68210150
    49  H          0.71990000       0.29800000       0.17820000
    50  H          0.28010000       0.79800000       0.32180000
    51  H          0.28010000       0.70200000       0.82180000
    52  H          0.71990000       0.20200000       0.67820000
    53  C          0.59967000       0.41583140       0.14562160
    54  C          0.40033000       0.91583140       0.35437840
    55  C          0.40033000       0.58416860       0.85437840
    56  C          0.59967000       0.08416860       0.64562160
    57  H          0.48620000       0.39250000       0.11690000
    58  H          0.51380000       0.89250000       0.38310000
    59  H          0.51380000       0.60750000       0.88310000
    60  H          0.48620000       0.10750000       0.61690000
    61  C          0.62537000       0.50678150       0.15078170
    62  C          0.37463000       0.00678150       0.34921830
    63  C          0.37463000       0.49321850       0.84921830
    64  C          0.62537000      -0.00678150       0.65078170
    65  H          0.52910000       0.54500000       0.12460000
    66  H          0.47090000       0.04500000       0.37540000
    67  H          0.47090000       0.45500000       0.87540000
    68  H          0.52910000       0.95500000       0.62460000
    69  C          0.78837000       0.54200130       0.19327160
    70  C          0.21163000       0.04200130       0.30672840
    71  C          0.21163000       0.45799870       0.80672840
    72  C          0.78837000       0.95799870       0.69327160
    73  H          0.80530000       0.60400000       0.19750000
    74  H          0.19470000       0.10400000       0.30250000
    75  H          0.19470000       0.39600000       0.80250000
    76  H          0.80530000       0.89600000       0.69750000
    77  C          0.92748000       0.48468120       0.22980140
    78  C          0.07252000       0.98468120       0.27019860
    79  C          0.07252000       0.51531880       0.77019860
    80  C          0.92748000       0.01531880       0.72980140
    81  C          0.91992000       0.73355120       0.47752140
    82  C          0.08008000       0.23355120       0.02247860
    83  C          0.08008000       0.26644880       0.52247860
    84  C          0.91992000       0.76644880       0.97752140
    85  I          0.66274616       0.69747180       0.40959510
    86  I          0.33725384       0.19747180       0.09040490
    87  I          0.33725384       0.30252820       0.59040490
    88  I          0.66274616       0.80252820       0.90959510
    89  C          0.96883000       0.82068120       0.49750150
    90  C          0.03117000       0.32068120       0.00249850
    91  C          0.03117000       0.17931880       0.50249850
    92  C          0.96883000       0.67931880      -0.00249850
    93  F          0.85086150       0.88523700       0.47073900
    94  F          0.14913850       0.38523700       0.02926100
    95  F          0.14913850       0.11476300       0.52926100
    96  F          0.85086150       0.61476300       0.97073900
    97  C          0.13843000       0.84359120       0.54435140
    98  C          0.86157000       0.34359120       0.95564860
    99  C          0.86157000       0.15640880       0.45564860
   100  C          0.13843000       0.65640880       0.04435140
   101  F          0.18375160       0.92799700       0.56133900
   102  F          0.81624840       0.42799700       0.93866100
   103  F          0.81624840       0.07200300       0.43866100
   104  F          0.18375160       0.57200300       0.06133900
   105  C          0.26393000       0.77854130       0.57195150
   106  C          0.73607000       0.27854130       0.92804850
   107  C          0.73607000       0.22145870       0.42804850
   108  C          0.26393000       0.72145870       0.07195150
   109  F          0.42942170       0.79967700       0.61741110
   110  F          0.57057830       0.29967700       0.88258890
   111  F          0.57057830       0.20032300       0.38258890
   112  F          0.42942170       0.70032300       0.11741110
   113  C          0.21813000       0.69147120       0.55218150
   114  C          0.78187000       0.19147120       0.94781850
   115  C          0.78187000       0.30852880       0.44781850
   116  C          0.21813000       0.80852880       0.05218150
   117  F          0.34051150       0.62891800       0.57950900
   118  F          0.65948850       0.12891800       0.92049100
   119  F          0.65948850       0.37108200       0.42049100
   120  F          0.34051150       0.87108200       0.07950900
   121  C          0.04833000       0.66979120       0.50579150
   122  C          0.95167000       0.16979120      -0.00579150
   123  C          0.95167000       0.33020880       0.49420850
   124  C          0.04833000       0.83020880       0.00579150
   125  F          0.00757170       0.58463700       0.49011100
   126  F         -0.00757170       0.08463700       0.00988900
   127  F         -0.00757170       0.41536300       0.50988900
   128  F          0.00757170       0.91536300      -0.00988900
