data_AXUWEX
_symmetry_space_group_name_H-M    'P1'
_symmetry_Int_Tables_number       1
loop_
_symmetry_equiv_pos_site_id
_symmetry_equiv_pos_as_xyz
1 x,y,z
_cell_length_a                   8.123717
_cell_length_b                   7.154215
_cell_length_c                   12.3183
_cell_angle_alpha                90.0
_cell_angle_beta                 92.5027
_cell_angle_gamma                90.0
loop_
_atom_site_label
_atom_site_type_symbol
_atom_site_fract_x
_atom_site_fract_y
_atom_site_fract_z
     1  N          0.65604000       0.81535000       0.25013000
     2  N          0.34396000       0.31535000       0.74987000
     3  N          0.56764000       0.66675000       0.28263000
     4  N          0.43236000       0.16675000       0.71737000
     5  N          0.51574000       0.57975000       0.19213000
     6  N          0.48426000       0.07975000       0.80787000
     7  C          0.56835000       0.66896000       0.10423000
     8  C          0.43165000       0.16896000       0.89577000
     9  H          0.54680000       0.63240000       0.03080000
    10  H          0.45320000       0.13240000       0.96920000
    11  C          0.65985000       0.82416000       0.13893000
    12  C          0.34015000       0.32416000       0.86107000
    13  C          0.74695000       0.97316000       0.09243000
    14  C          0.25305000       0.47316000       0.90757000
    15  H          0.75200000      -0.01600000       0.01570000
    16  H          0.24800000       0.48400000       0.98430000
    17  C          0.82296000       0.10026000       0.15904000
    18  C          0.17704000       0.60026000       0.84096000
    19  H          0.88130000       0.20130000       0.12880000
    20  H          0.11870000       0.70130000       0.87120000
    21  C          0.81595000       0.08326000       0.27443000
    22  C          0.18405000       0.58326000       0.72557000
    23  H          0.87080000       0.17260000       0.32000000
    24  H          0.12920000       0.67260000       0.68000000
    25  C          0.73305000       0.94276000       0.31913000
    26  C          0.26695000       0.44276000       0.68087000
    27  H          0.72750000       0.93150000       0.39570000
    28  H          0.27250000       0.43150000       0.60430000
    29  C          0.77225000       0.38576000       0.64123000
    30  C          0.22775000       0.88576000       0.35877000
    31  I          0.66806300       0.50058400       0.49799200
    32  I          0.33193700       0.00058400       0.50200800
    33  C          0.75804000       0.46515000       0.74393000
    34  C          0.24196000       0.96515000       0.25607000
    35  I          0.64362300       0.72326300       0.77004200
    36  I          0.35637700       0.22326300       0.22995800
    37  C          0.82645000       0.37326000       0.83373000
    38  C          0.17355000       0.87326000       0.16627000
    39  F          0.81303000       0.44204000       0.93452190
    40  F          0.18697000       0.94204000       0.06547810
    41  C          0.91285000       0.20916000       0.82403000
    42  C          0.08715000       0.70916000       0.17597000
    43  F          0.98183000       0.12394000       0.91142000
    44  F          0.01817000       0.62394000       0.08858000
    45  C          0.93025000       0.13166000       0.72203000
    46  C          0.06975000       0.63166000       0.27797000
    47  F          0.01673000       0.97566000       0.71182000
    48  F         -0.01673000       0.47566000       0.28818000
    49  C          0.85755000       0.21917000       0.63223000
    50  C          0.14245000       0.71917000       0.36777000
    51  F          0.87444000       0.13734000       0.53552000
    52  F          0.12556000       0.63734000       0.46448000
