data_AYIBEP
_symmetry_space_group_name_H-M    'P1'
_symmetry_Int_Tables_number       1
loop_
_symmetry_equiv_pos_site_id
_symmetry_equiv_pos_as_xyz
1 x,y,z
_cell_length_a                   7.69901
_cell_length_b                   18.02001
_cell_length_c                   13.5893
_cell_angle_alpha                90.0
_cell_angle_beta                 98.822
_cell_angle_gamma                90.0
loop_
_atom_site_label
_atom_site_type_symbol
_atom_site_fract_x
_atom_site_fract_y
_atom_site_fract_z
     1  Br         0.21485600       0.08426200       0.44065400
     2  Br         0.28514400       0.58426200       0.05934600
     3  Br         0.78514400       0.91573800       0.55934600
     4  Br         0.71485600       0.41573800       0.94065400
     5  Br         0.66554700       0.22065300       0.54052400
     6  Br         0.83445300       0.72065300       0.95947600
     7  Br         0.33445300       0.77934700       0.45947600
     8  Br         0.16554700       0.27934700       0.04052400
     9  N          0.29955000       0.01812000       0.66013000
    10  N          0.20045000       0.51812000       0.83987000
    11  N          0.70045000       0.98188000       0.33987000
    12  N          0.79955000       0.48188000       0.16013000
    13  N          0.20655000       0.80378000       0.05173000
    14  N          0.29345000       0.30378000       0.44827000
    15  N          0.79345000       0.19622000       0.94827000
    16  N          0.70655000       0.69622000       0.55173000
    17  N          0.03175000       0.87631830       0.21923000
    18  N          0.46825000       0.37631830       0.28077000
    19  N          0.96825000       0.12368170       0.78077000
    20  N          0.53175000       0.62368170       0.71923000
    21  H          0.13160000       0.89770000       0.24910000
    22  H          0.36840000       0.39770000       0.25090000
    23  H          0.86840000       0.10230000       0.75090000
    24  H          0.63160000       0.60230000       0.74910000
    25  H          0.00030000       0.89840000       0.15970000
    26  H          0.49970000       0.39840000       0.34030000
    27  H         -0.00030000       0.10160000       0.84030000
    28  H          0.50030000       0.60160000       0.65970000
    29  C          0.32436000       0.93808000       0.63234000
    30  C          0.17564000       0.43808000       0.86766000
    31  C          0.67564000       0.06192000       0.36766000
    32  C          0.82436000       0.56192000       0.13234000
    33  C          0.34046000       0.89018000       0.72353000
    34  C          0.15954000       0.39018000       0.77647000
    35  C          0.65954000       0.10982000       0.27647000
    36  C          0.84046000       0.60982000       0.22353000
    37  C          0.20117000       0.84617000       0.74144000
    38  C          0.29883000       0.34617000       0.75856000
    39  C          0.79883000       0.15383000       0.25856000
    40  C          0.70117000       0.65383000       0.24144000
    41  C          0.21007000       0.80837000       0.83034000
    42  C          0.28993000       0.30837000       0.66966000
    43  C          0.78993000       0.19163000       0.16966000
    44  C          0.71007000       0.69163000       0.33034000
    45  C          0.35606000       0.81608000       0.90374000
    46  C          0.14394000       0.31608000       0.59626000
    47  C          0.64394000       0.18392000       0.09626000
    48  C          0.85606000       0.68392000       0.40374000
    49  C          0.49746000       0.85828000       0.88364000
    50  C          0.00254000       0.35828000       0.61636000
    51  C          0.50254000       0.14172000       0.11636000
    52  C         -0.00254000       0.64172000       0.38364000
    53  C          0.48956000       0.89448000       0.79434000
    54  C          0.01044000       0.39448000       0.70566000
    55  C          0.51044000       0.10552000       0.20566000
    56  C         -0.01044000       0.60552000       0.29434000
    57  C          0.36107000       0.77977000       0.00264000
    58  C          0.13893000       0.27977000       0.49736000
    59  C          0.63893000       0.22023000      -0.00264000
    60  C          0.86107000       0.72023000       0.50264000
    61  C          0.22756000       0.78137000       0.15793000
    62  C          0.27244000       0.28137000       0.34207000
    63  C          0.77244000       0.21863000       0.84207000
    64  C          0.72756000       0.71863000       0.65793000
    65  C          0.06336000       0.79588000       0.20414000
    66  C          0.43664000       0.29588000       0.29586000
    67  C          0.93664000       0.20412000       0.79586000
    68  C          0.56336000       0.70412000       0.70414000
    69  C          0.89036000       0.88758000       0.28174000
    70  C          0.60964000       0.38758000       0.21826000
    71  C          0.10964000       0.11242000       0.71826000
    72  C          0.39036000       0.61242000       0.78174000
    73  C          0.13656000       0.03052000       0.70404000
    74  C          0.36344000       0.53052000       0.79596000
    75  C          0.86344000       0.96948000       0.29596000
    76  C          0.63656000       0.46948000       0.20404000
    77  H          0.38270000       0.03020000       0.69940000
    78  H          0.11730000       0.53020000       0.80060000
    79  H          0.61730000       0.96980000       0.30060000
    80  H          0.88270000       0.46980000       0.19940000
    81  H          0.28680000       0.04630000       0.60150000
    82  H          0.21320000       0.54630000       0.89850000
    83  H          0.71320000       0.95370000       0.39850000
    84  H          0.78680000       0.45370000       0.10150000
    85  H          0.11270000       0.77970000       0.02640000
    86  H          0.38730000       0.27970000       0.47360000
    87  H          0.88730000       0.22030000       0.97360000
    88  H          0.61270000       0.72030000       0.52640000
    89  H          0.20970000       0.85770000       0.05040000
    90  H          0.29030000       0.35770000       0.44960000
    91  H          0.79030000       0.14230000       0.94960000
    92  H          0.70970000       0.64230000       0.55040000
    93  H          0.22460000       0.92680000       0.58530000
    94  H          0.27540000       0.42680000       0.91470000
    95  H          0.77540000       0.07320000       0.41470000
    96  H          0.72460000       0.57320000       0.08530000
    97  H          0.42760000       0.93680000       0.60330000
    98  H          0.07240000       0.43680000       0.89670000
    99  H          0.57240000       0.06320000       0.39670000
   100  H          0.92760000       0.56320000       0.10330000
   101  H          0.11370000       0.84370000       0.69140000
   102  H          0.38630000       0.34370000       0.80860000
   103  H          0.88630000       0.15630000       0.30860000
   104  H          0.61370000       0.65630000       0.19140000
   105  H          0.11360000       0.77780000       0.84530000
   106  H          0.38640000       0.27780000       0.65470000
   107  H          0.88640000       0.22220000       0.15470000
   108  H          0.61360000       0.72220000       0.34530000
   109  H          0.59380000       0.86770000       0.93740000
   110  H          0.90620000       0.36770000       0.56260000
   111  H          0.40620000       0.13230000       0.06260000
   112  H          0.09380000       0.63230000       0.43740000
   113  H          0.58360000       0.92480000       0.77830000
   114  H          0.91640000       0.42480000       0.72170000
   115  H          0.41640000       0.07520000       0.22170000
   116  H          0.08360000       0.57520000       0.27830000
   117  H          0.34460000       0.72770000      -0.00660000
   118  H          0.15540000       0.22770000       0.50660000
   119  H          0.65540000       0.27230000       0.00660000
   120  H          0.84460000       0.77230000       0.49340000
   121  H          0.46660000       0.79380000       0.04830000
   122  H          0.03340000       0.29380000       0.45170000
   123  H          0.53340000       0.20620000       0.95170000
   124  H          0.96660000       0.70620000       0.54830000
   125  H          0.24860000       0.73070000       0.16140000
   126  H          0.25140000       0.23070000       0.33860000
   127  H          0.75140000       0.26930000       0.83860000
   128  H          0.74860000       0.76930000       0.66140000
   129  H          0.33470000       0.80670000       0.19540000
   130  H          0.16530000       0.30670000       0.30460000
   131  H          0.66530000       0.19330000       0.80460000
   132  H          0.83470000       0.69330000       0.69540000
   133  H          0.07960000       0.77470000       0.26640000
   134  H          0.42040000       0.27470000       0.23360000
   135  H          0.92040000       0.22530000       0.73360000
   136  H          0.57960000       0.72530000       0.76640000
   137  H          0.96470000       0.77780000       0.16830000
   138  H          0.53530000       0.27780000       0.33170000
   139  H          0.03530000       0.22220000       0.83170000
   140  H          0.46470000       0.72220000       0.66830000
   141  H          0.78460000       0.86080000       0.24730000
   142  H          0.71540000       0.36080000       0.25270000
   143  H          0.21540000       0.13920000       0.75270000
   144  H          0.28460000       0.63920000       0.74730000
   145  H          0.92570000       0.86370000       0.33840000
   146  H          0.57430000       0.36370000       0.16160000
   147  H          0.07430000       0.13630000       0.66160000
   148  H          0.42570000       0.63630000       0.83840000
   149  H          0.04470000       0.01130000       0.66330000
   150  H          0.45530000       0.51130000       0.83670000
   151  H          0.95530000       0.98870000       0.33670000
   152  H          0.54470000       0.48870000       0.16330000
   153  H          0.14660000       0.00230000       0.76740000
   154  H          0.35340000       0.50230000       0.73260000
   155  H          0.85340000      -0.00230000       0.23260000
   156  H          0.64660000       0.49770000       0.26740000
   157  H          0.40780000       0.13230000       0.06340000
   158  H          0.09220000       0.63230000       0.43660000
   159  H          0.59220000       0.86770000       0.93660000
   160  H          0.90780000       0.36770000       0.56340000
   161  H          0.07570000       0.13630000       0.66240000
   162  H          0.42430000       0.63630000       0.83760000
   163  H          0.92430000       0.86370000       0.33760000
   164  H          0.57570000       0.36370000       0.16240000
   165  H          0.92160000       0.22530000       0.73440000
   166  H          0.57840000       0.72530000       0.76560000
   167  H          0.07840000       0.77470000       0.26560000
   168  H          0.42160000       0.27470000       0.23440000
   169  H          0.75260000       0.26930000       0.83940000
   170  H          0.74740000       0.76930000       0.66060000
   171  H          0.24740000       0.73070000       0.16060000
   172  H          0.25260000       0.23070000       0.33940000
   173  H          0.66670000       0.19330000       0.80540000
   174  H          0.83330000       0.69330000       0.69460000
   175  H          0.33330000       0.80670000       0.19460000
   176  H          0.16670000       0.30670000       0.30540000
   177  H          0.88870000       0.22030000       0.97440000
   178  H          0.61130000       0.72030000       0.52560000
   179  H          0.11130000       0.77970000       0.02560000
   180  H          0.38870000       0.27970000       0.47440000
   181  H          0.79170000       0.14230000       0.95040000
   182  H          0.70830000       0.64230000       0.54960000
   183  H          0.20830000       0.85770000       0.04960000
   184  H          0.29170000       0.35770000       0.45040000
   185  H          0.65660000       0.27230000       0.00740000
   186  H          0.84340000       0.77230000       0.49260000
   187  H          0.34340000       0.72770000      -0.00740000
   188  H          0.15660000       0.22770000       0.50740000
   189  H          0.88770000       0.15630000       0.30940000
   190  H          0.61230000       0.65630000       0.19060000
   191  H          0.11230000       0.84370000       0.69060000
   192  H          0.38770000       0.34370000       0.80940000
   193  H          0.61870000       0.96980000       0.30140000
   194  H          0.88130000       0.46980000       0.19860000
   195  H          0.38130000       0.03020000       0.69860000
   196  H          0.11870000       0.53020000       0.80140000
   197  H          0.71480000       0.95370000       0.39950000
   198  H          0.78520000       0.45370000       0.10050000
   199  H          0.28520000       0.04630000       0.60050000
   200  H          0.21480000       0.54630000       0.89950000
   201  H          0.85460000      -0.00230000       0.23340000
   202  H          0.64540000       0.49770000       0.26660000
   203  H          0.14540000       0.00230000       0.76660000
   204  H          0.35460000       0.50230000       0.73340000
   205  C          0.89965000      -0.00302000       0.00063000
   206  C          0.60035000       0.49698000       0.49937000
   207  C          0.10035000       0.00302000      -0.00063000
   208  C          0.39965000       0.50302000       0.50063000
   209  O          0.84644000       0.94880820       0.05383000
   210  O          0.65356000       0.44880820       0.44617000
   211  O          0.15356000       0.05119180       0.94617000
   212  O          0.34644000       0.55119180       0.55383000
   213  O          0.80474000       0.04156170       0.94462000
   214  O          0.69526000       0.54156170       0.55538000
   215  O          0.19526000       0.95843830       0.05538000
   216  O          0.30474000       0.45843830       0.44462000
   217  O          0.46306000       0.07072000       0.86073000
   218  O          0.03694000       0.57072000       0.63927000
   219  O          0.53694000       0.92928000       0.13927000
   220  O          0.96306000       0.42928000       0.36073000
   221  H          0.55780000       0.05430000       0.88840000
   222  H          0.94220000       0.55430000       0.61160000
   223  H          0.44220000       0.94570000       0.11160000
   224  H          0.05780000       0.44570000       0.38840000
   225  H          0.39270000       0.06330000       0.88840000
   226  H          0.10730000       0.56330000       0.61160000
   227  H          0.60730000       0.93670000       0.11160000
   228  H          0.89270000       0.43670000       0.38840000
   229  O          0.66805000       0.06783000       0.66213000
   230  O          0.83195000       0.56783000       0.83787000
   231  O          0.33195000       0.93217000       0.33787000
   232  O          0.16805000       0.43217000       0.16213000
   233  H          0.65980000       0.10040000       0.62950000
   234  H          0.84020000       0.60040000       0.87050000
   235  H          0.34020000       0.89960000       0.37050000
   236  H          0.15980000       0.39960000       0.12950000
   237  H          0.69090000       0.03740000       0.63050000
   238  H          0.80910000       0.53740000       0.86950000
   239  H          0.30910000       0.96260000       0.36950000
   240  H          0.19090000       0.46260000       0.13050000
