data_AYOROW
_symmetry_space_group_name_H-M    'P1'
_symmetry_Int_Tables_number       1
loop_
_symmetry_equiv_pos_site_id
_symmetry_equiv_pos_as_xyz
1 x,y,z
_cell_length_a                   14.65955
_cell_length_b                   4.65672
_cell_length_c                   26.52818
_cell_angle_alpha                90.0
_cell_angle_beta                 101.4082
_cell_angle_gamma                90.0
loop_
_atom_site_label
_atom_site_type_symbol
_atom_site_fract_x
_atom_site_fract_y
_atom_site_fract_z
     1  O          0.22787110       0.59833000       0.16097600
     2  O          0.27212890       0.09833000       0.33902400
     3  O          0.77212890       0.40167000       0.83902400
     4  O          0.72787110       0.90167000       0.66097600
     5  H          0.29320000       0.53760000       0.16311100
     6  H          0.20680000       0.03760000       0.33688900
     7  H          0.70680000       0.46240000       0.83688900
     8  H          0.79320000       0.96240000       0.66311100
     9  O          0.29779100       0.94423000       0.21235600
    10  O          0.20220900       0.44423000       0.28764400
    11  O          0.70220900       0.05577000       0.78764400
    12  O          0.79779100       0.55577000       0.71235600
    13  O          0.98763890       0.53714000       0.21311600
    14  O          0.51236110       0.03714000       0.28688400
    15  O          0.01236110       0.46286000       0.78688400
    16  O          0.48763890       0.96286000       0.71311600
    17  O          0.08996110       0.02274000       0.08551600
    18  O          0.41003890       0.52274000       0.41448400
    19  O          0.91003890      -0.02274000       0.91448400
    20  O          0.58996110       0.47726000       0.58551600
    21  N          0.05672100       0.81024000       0.15825600
    22  N          0.44327900       0.31024000       0.34174400
    23  N          0.94327900       0.18976000       0.84174400
    24  N          0.55672100       0.68976000       0.65825600
    25  C          0.22844140       0.82655000       0.19031800
    26  C          0.27155860       0.32655000       0.30968200
    27  C          0.77155860       0.17345000       0.80968200
    28  C          0.72844140       0.67345000       0.69031800
    29  C          0.13310130       0.92945000       0.19542800
    30  C          0.36689870       0.42945000       0.30457200
    31  C          0.86689870       0.07055000       0.80457200
    32  C          0.63310130       0.57055000       0.69542800
    33  H          0.12370000       0.88250000       0.22970000
    34  H          0.37630000       0.38250000       0.27030000
    35  H          0.87630000       0.11750000       0.77030000
    36  H          0.62370000       0.61750000       0.72970000
    37  H          0.13130000       0.13690000       0.19220000
    38  H          0.36870000       0.63690000       0.30780000
    39  H          0.86870000       0.86310000       0.80780000
    40  H          0.63130000       0.36310000       0.69220000
    41  C          0.04313140       0.86025000       0.10534800
    42  C          0.45686860       0.36025000       0.39465200
    43  C          0.95686860       0.13975000       0.89465200
    44  C          0.54313140       0.63975000       0.60534800
    45  C          0.96300860       0.67965000       0.08152800
    46  C          0.53699140       0.17965000       0.41847200
    47  C          0.03699140       0.32035000       0.91847200
    48  C          0.46300860       0.82035000       0.58152800
    49  C          0.92141830       0.64166000       0.03054900
    50  C          0.57858170       0.14166000       0.46945100
    51  C          0.07858170       0.35834000       0.96945100
    52  C          0.42141830       0.85834000       0.53054900
    53  H          0.94180000       0.74060000       0.00440000
    54  H          0.55820000       0.24060000       0.49560000
    55  H          0.05820000       0.25940000      -0.00440000
    56  H          0.44180000       0.75940000       0.50440000
    57  C          0.84796810       0.44936000       0.02013100
    58  C          0.65203190       0.94936000       0.47986900
    59  C          0.15203190       0.55064000       0.97986900
    60  C          0.34796810       0.05064000       0.52013100
    61  H          0.81940000       0.41490000       0.98610000
    62  H          0.68060000       0.91490000       0.51390000
    63  H          0.18060000       0.58510000       0.01390000
    64  H          0.31940000       0.08510000       0.48610000
    65  C          0.81625830       0.30796000       0.05892110
    66  C          0.68374170       0.80796000       0.44107890
    67  C          0.18374170       0.69204000       0.94107890
    68  C          0.31625830       0.19204000       0.55892110
    69  H          0.76600000       0.18310000       0.05050000
    70  H          0.73400000       0.68310000       0.44950000
    71  H          0.23400000       0.81690000       0.94950000
    72  H          0.26600000       0.31690000       0.55050000
    73  C          0.85741850       0.34695000       0.11024100
    74  C          0.64258150       0.84695000       0.38975900
    75  C          0.14258150       0.65305000       0.88975900
    76  C          0.35741850       0.15305000       0.61024100
    77  H          0.83600000       0.25160000       0.13640000
    78  H          0.66400000       0.75160000       0.36360000
    79  H          0.16400000       0.74840000       0.86360000
    80  H          0.33600000       0.24840000       0.63640000
    81  C          0.93203870       0.53485000       0.12049800
    82  C          0.56796130       0.03485000       0.37950200
    83  C          0.06796130       0.46515000       0.87950200
    84  C          0.43203870       0.96515000       0.62049800
    85  C         -0.00813140       0.61625000       0.17002800
    86  C          0.50813140       0.11625000       0.32997200
    87  C          0.00813140       0.38375000       0.82997200
    88  C          0.49186860       0.88375000       0.67002800
    89  O          0.68437110       0.01154000       0.15118700
    90  O          0.81562890       0.51154000       0.34881300
    91  O          0.31562890      -0.01154000       0.84881300
    92  O          0.18437110       0.48846000       0.65118700
    93  O          0.42324130       0.75996000       0.03383600
    94  O          0.07675870       0.25996000       0.46616400
    95  O          0.57675870       0.24004000       0.96616400
    96  O          0.92324130       0.74004000       0.53383600
    97  N          0.55660110       0.42934000       0.19480600
    98  N          0.94339890       0.92934000       0.30519400
    99  N          0.44339890       0.57066000       0.80519400
   100  N          0.05660110       0.07066000       0.69480600
   101  N          0.55304130       0.88876000       0.09235700
   102  N          0.94695870       0.38876000       0.40764300
   103  N          0.44695870       0.11124000       0.90764300
   104  N          0.05304130       0.61124000       0.59235700
   105  N          0.40577120       0.09464000       0.09313600
   106  N          0.09422880       0.59464000       0.40686400
   107  N          0.59422880       0.90536000       0.90686400
   108  N          0.90577120       0.40536000       0.59313600
   109  N          0.40629110       0.45904000       0.15872600
   110  N          0.09370890       0.95904000       0.34127400
   111  N          0.59370890       0.54096000       0.84127400
   112  N          0.90629110       0.04096000       0.65872600
   113  C          0.47493140       0.55665000       0.19502800
   114  C          0.02506860       0.05665000       0.30497200
   115  C          0.52506860       0.44335000       0.80497200
   116  C          0.97493140       0.94335000       0.69502800
   117  H          0.46700000       0.69940000       0.21830000
   118  H          0.03300000       0.19940000       0.28170000
   119  H          0.53300000       0.30060000       0.78170000
   120  H          0.96700000       0.80060000       0.71830000
   121  C          0.54018130       0.22914000       0.15529700
   122  C          0.95981870       0.72914000       0.34470300
   123  C          0.45981870       0.77086000       0.84470300
   124  C          0.04018130       0.27086000       0.65529700
   125  C          0.60057150       0.04245000       0.13510900
   126  C          0.89942850       0.54245000       0.36489100
   127  C          0.39942850       0.95755000       0.86489100
   128  C          0.10057150       0.45755000       0.63510900
   129  C          0.45764160       0.90575000       0.07064800
   130  C          0.04235840       0.40575000       0.42935200
   131  C          0.54235840       0.09425000       0.92935200
   132  C          0.95764160       0.59425000       0.57064800
   133  C          0.44793130       0.25494000       0.13435700
   134  C          0.05206870       0.75494000       0.36564300
   135  C          0.55206870       0.74506000       0.86564300
   136  C          0.94793130       0.24506000       0.63435700
   137  C          0.64351160       0.48336000       0.23127900
   138  C          0.85648840      -0.01664000       0.26872100
   139  C          0.35648840       0.51664000       0.76872100
   140  C          0.14351160       0.01664000       0.73127900
   141  H          0.69280000       0.51420000       0.21280000
   142  H          0.80720000       0.01420000       0.28720000
   143  H          0.30720000       0.48580000       0.78720000
   144  H          0.19280000      -0.01420000       0.71280000
   145  H          0.65820000       0.32060000       0.25360000
   146  H          0.84180000       0.82060000       0.24640000
   147  H          0.34180000       0.67940000       0.74640000
   148  H          0.15820000       0.17940000       0.75360000
   149  H          0.63660000       0.65060000       0.25130000
   150  H          0.86340000       0.15060000       0.24870000
   151  H          0.36340000       0.34940000       0.74870000
   152  H          0.13660000       0.84940000       0.75130000
   153  C          0.60798190       0.69814000       0.06585100
   154  C          0.89201810       0.19814000       0.43414900
   155  C          0.39201810       0.30186000       0.93414900
   156  C          0.10798190       0.80186000       0.56585100
   157  H          0.66300000       0.63830000       0.08950000
   158  H          0.83700000       0.13830000       0.41050000
   159  H          0.33700000       0.36170000       0.91050000
   160  H          0.16300000       0.86170000       0.58950000
   161  H          0.62530000       0.79900000       0.03760000
   162  H          0.87470000       0.29900000       0.46240000
   163  H          0.37470000       0.20100000       0.96240000
   164  H          0.12530000       0.70100000       0.53760000
   165  H          0.57150000       0.53270000       0.05310000
   166  H          0.92850000       0.03270000       0.44690000
   167  H          0.42850000       0.46730000       0.94690000
   168  H          0.07150000       0.96730000       0.55310000
   169  C          0.30650160       0.12006000       0.07221100
   170  C          0.19349840       0.62006000       0.42778900
   171  C          0.69349840       0.87994000       0.92778900
   172  C          0.80650160       0.37994000       0.57221100
   173  H          0.29700000       0.16050000       0.03610000
   174  H          0.20300000       0.66050000       0.46390000
   175  H          0.70300000       0.83950000       0.96390000
   176  H          0.79700000       0.33950000       0.53610000
   177  H          0.28100000       0.27320000       0.08930000
   178  H          0.21900000       0.77320000       0.41070000
   179  H          0.71900000       0.72680000       0.91070000
   180  H          0.78100000       0.22680000       0.58930000
   181  H          0.27610000       0.94310000       0.07750000
   182  H          0.22390000       0.44310000       0.42250000
   183  H          0.72390000       0.05690000       0.92250000
   184  H          0.77610000       0.55690000       0.57750000
