data_AZARUQ
_symmetry_space_group_name_H-M    'P1'
_symmetry_Int_Tables_number       1
loop_
_symmetry_equiv_pos_site_id
_symmetry_equiv_pos_as_xyz
1 x,y,z
_cell_length_a                   7.5484
_cell_length_b                   9.3325
_cell_length_c                   10.5155
_cell_angle_alpha                81.94911
_cell_angle_beta                 82.30111
_cell_angle_gamma                77.09811
loop_
_atom_site_label
_atom_site_type_symbol
_atom_site_fract_x
_atom_site_fract_y
_atom_site_fract_z
     1  O          0.68073000       0.51593000       0.58402000
     2  O          0.31927000       0.48407000       0.41598000
     3  H          0.67450000       0.54750000       0.50940000
     4  H          0.32550000       0.45250000       0.49060000
     5  H          0.78460000       0.44450000       0.60740000
     6  H          0.21540000       0.55550000       0.39260000
     7  O          0.38723000       0.41093000       0.67197190
     8  O          0.61277000       0.58907000       0.32802810
     9  H          0.49850000       0.44640000       0.64830000
    10  H          0.50150000       0.55360000       0.35170000
    11  O          0.13743000       0.39433000       0.82802000
    12  O          0.86257000       0.60567000       0.17198000
    13  H          0.08250000       0.38250000       0.77140000
    14  H          0.91750000       0.61750000       0.22860000
    15  C          0.41094000       0.46113000       0.90363000
    16  C          0.58906000       0.53887000       0.09637000
    17  C          0.60045000       0.42824000       0.89923000
    18  C          0.39955000       0.57176000       0.10077000
    19  H          0.67750000       0.38040000       0.83040000
    20  H          0.32250000       0.61960000       0.16960000
    21  C          0.69044000       0.46624000      -0.00707000
    22  C          0.30956000       0.53376000       0.00707000
    23  H          0.82650000       0.44740000      -0.00970000
    24  H          0.17350000       0.55260000       0.00970000
    25  B          0.30655000       0.42074000       0.79673000
    26  B          0.69345000       0.57926000       0.20327000
    27  H          0.50250000       0.55440000       0.35230000
    28  H          0.49750000       0.44560000       0.64770000
    29  H          0.91850000       0.61850000       0.22940000
    30  H          0.08150000       0.38150000       0.77060000
    31  H          0.32350000       0.62040000       0.17040000
    32  H          0.67650000       0.37960000       0.82960000
    33  H          0.17450000       0.55340000       0.01030000
    34  H          0.82550000       0.44660000      -0.01030000
    35  O          0.98347000       0.31993000       0.63592000
    36  O          0.01653000       0.68007000       0.36408000
    37  N          0.06924000       0.22643000       0.54952000
    38  N          0.93076000       0.77357000       0.45048000
    39  C          0.16194000       0.08574000       0.59713000
    40  C          0.83806000       0.91426000       0.40287000
    41  C          0.16155000       0.04474000       0.73053000
    42  C          0.83845000       0.95526000       0.26947000
    43  H          0.09750000       0.11050000       0.77740000
    44  H          0.90250000       0.88950000       0.22260000
    45  C          0.25715000       0.91036000       0.77653000
    46  C          0.74285000       0.08964000       0.22347000
    47  H          0.26040000       0.87960000       0.87130000
    48  H          0.73960000       0.12040000       0.12870000
    49  C          0.35845000       0.81106000       0.68953000
    50  C          0.64155000       0.18894000       0.31047000
    51  H          0.43350000       0.72560000       0.72630000
    52  H          0.56650000       0.27440000       0.27370000
    53  C          0.35495000       0.84846000       0.55973000
    54  C          0.64505000       0.15154000       0.44027000
    55  H          0.42540000       0.78360000       0.50030000
    56  H          0.57460000       0.21640000       0.49970000
    57  C          0.25594000       0.98616000       0.50733000
    58  C          0.74406000       0.01384000       0.49267000
    59  C          0.24764000       0.03154000       0.37013000
    60  C          0.75236000       0.96846000       0.62987000
    61  C          0.33295000       0.93936000       0.27363000
    62  C          0.66705000       0.06064000       0.72637000
    63  H          0.40040000       0.84460000       0.29630000
    64  H          0.59960000       0.15540000       0.70370000
    65  C          0.32105000      -0.00904000       0.14513000
    66  C          0.67895000       0.00904000       0.85487000
    67  H          0.38050000       0.93160000       0.09030000
    68  H          0.61950000       0.06840000       0.90970000
    69  C          0.22945000       0.13354000       0.10613000
    70  C          0.77055000       0.86646000       0.89387000
    71  H          0.22250000       0.17240000       0.02140000
    72  H          0.77750000       0.82760000       0.97860000
    73  C          0.14395000       0.22604000       0.19753000
    74  C          0.85605000       0.77396000       0.80247000
    75  H          0.07950000       0.32840000       0.17430000
    76  H          0.92050000       0.67160000       0.82570000
    77  C          0.15214000       0.17484000       0.33023000
    78  C          0.84786000       0.82516000       0.66977000
    79  C          0.06395000       0.26964000       0.42543000
    80  C          0.93605000       0.73036000       0.57457000
    81  H          0.00950000       0.37440000       0.39330000
    82  H         -0.00950000       0.62560000       0.60670000
