data_AZASEB
_symmetry_space_group_name_H-M    'P1'
_symmetry_Int_Tables_number       1
loop_
_symmetry_equiv_pos_site_id
_symmetry_equiv_pos_as_xyz
1 x,y,z
_cell_length_a                   7.81001
_cell_length_b                   8.965111
_cell_length_c                   10.623414
_cell_angle_alpha                74.6623
_cell_angle_beta                 82.2843
_cell_angle_gamma                82.5283
loop_
_atom_site_label
_atom_site_type_symbol
_atom_site_fract_x
_atom_site_fract_y
_atom_site_fract_z
     1  O          0.38504120       0.09157110       0.14301900
     2  O          0.61495880       0.90842890       0.85698100
     3  H          0.45030000       0.09820000       0.19920000
     4  H          0.54970000       0.90180000       0.80080000
     5  O          0.12311130       0.15184120       0.27672900
     6  O          0.87688870       0.84815880       0.72327100
     7  H          0.18430000       0.16920000       0.32920000
     8  H          0.81570000       0.83080000       0.67080000
     9  C          0.09889160       0.05467140       0.07857110
    10  C          0.90110840       0.94532860       0.92142890
    11  C          0.17953160       0.97033850      -0.01107120
    12  C          0.82046840       0.02966150       0.01107120
    13  H          0.30240000       0.94970000       0.98050000
    14  H          0.69760000       0.05030000       0.01950000
    15  C          0.08278160       0.91656850       0.91231890
    16  C          0.91721840       0.08343150       0.08768110
    17  H          0.14070000       0.85930000       0.85280000
    18  H          0.85930000       0.14070000       0.14720000
    19  B          0.20973180       0.10447160       0.17176130
    20  B          0.79026820       0.89552840       0.82823870
    21  O          0.28870120       0.17404100       0.48438900
    22  O          0.71129880       0.82595900       0.51561100
    23  N          0.22079130       0.28231120       0.54498100
    24  N          0.77920870       0.71768880       0.45501900
    25  N          0.42928150       0.39500130       0.29768110
    26  N          0.57071850       0.60499870       0.70231890
    27  C          0.11618160       0.23618160       0.65703120
    28  C          0.88381840       0.76381840       0.34296880
    29  H          0.09210000       0.13060000       0.68520000
    30  H          0.90790000       0.86940000       0.31480000
    31  C          0.04315170       0.33679160       0.73188120
    32  C          0.95684830       0.66320840       0.26811880
    33  H          0.97130000       0.30060000       0.81100000
    34  H          0.02870000       0.69940000       0.18900000
    35  C          0.07545160       0.49003160       0.69087120
    36  C          0.92454840       0.50996840       0.30912880
    37  H          0.02640000       0.56080000       0.74160000
    38  H          0.97360000       0.43920000       0.25840000
    39  C          0.18173150       0.54152150       0.57309120
    40  C          0.81826850       0.45847850       0.42690880
    41  C          0.21572170       0.70170150       0.52991130
    42  C          0.78427830       0.29829850       0.47008870
    43  H          0.16630000       0.77170000       0.58130000
    44  H          0.83370000       0.22830000       0.41870000
    45  C          0.31688170       0.75427150       0.41731130
    46  C          0.68311830       0.24572850       0.58268870
    47  H          0.33970000       0.86020000       0.39130000
    48  H          0.66030000       0.13980000       0.60870000
    49  C          0.38998160       0.65225150       0.33687120
    50  C          0.61001840       0.34774850       0.66312880
    51  C          0.48994170       0.70814150       0.21613130
    52  C          0.51005830       0.29185850       0.78386870
    53  H          0.51090000       0.81450000       0.18790000
    54  H          0.48910000       0.18550000       0.81210000
    55  C          0.55608180       0.60856170       0.14036130
    56  C          0.44391820       0.39143830       0.85963870
    57  H          0.62310000       0.64430000       0.05880000
    58  H          0.37690000       0.35570000       0.94120000
    59  C          0.52304190       0.45291160       0.18545130
    60  C          0.47695810       0.54708840       0.81454870
    61  H          0.57060000       0.38410000       0.13250000
    62  H          0.42940000       0.61590000       0.86750000
    63  C          0.36188150       0.49225140       0.37404110
    64  C          0.63811850       0.50774860       0.62595890
    65  C          0.25583150       0.43649140       0.49726120
    66  C          0.74416850       0.56350860       0.50273880
    67  O          0.58714130       0.08592120       0.32934900
    68  O          0.41285870       0.91407880       0.67065100
    69  H          0.51930000       0.16730000       0.36720000
    70  H          0.48070000       0.83270000       0.63280000
    71  H          0.61830000       0.00920000       0.39120000
    72  H          0.38170000      -0.00920000       0.60880000
