data_AZEDOA
_symmetry_space_group_name_H-M    'P1'
_symmetry_Int_Tables_number       1
loop_
_symmetry_equiv_pos_site_id
_symmetry_equiv_pos_as_xyz
1 x,y,z
_cell_length_a                   7.35915
_cell_length_b                   9.12876
_cell_length_c                   17.232212
_cell_angle_alpha                104.8902
_cell_angle_beta                 99.0502
_cell_angle_gamma                92.4902
loop_
_atom_site_label
_atom_site_type_symbol
_atom_site_fract_x
_atom_site_fract_y
_atom_site_fract_z
     1  Cl         0.66881800       0.17697700       0.40951300
     2  Cl         0.33118200       0.82302300       0.59048700
     3  O          0.78994000       0.26613000       0.47933140
     4  O          0.21006000       0.73387000       0.52066860
     5  O          0.76153000       0.14163000       0.34170140
     6  O          0.23847000       0.85837000       0.65829860
     7  O          0.51263000       0.25633000       0.39021150
     8  O          0.48737000       0.74367000       0.60978850
     9  O          0.60863000       0.03892000       0.42594130
    10  O          0.39137000       0.96108000       0.57405870
    11  O          0.13363000       0.54832000       0.29374100
    12  O          0.86637000       0.45168000       0.70625900
    13  N          0.38763000       0.38312000       0.68333120
    14  N          0.61237000       0.61688000       0.31666880
    15  C          0.41383000       0.52853000       0.72946160
    16  C          0.58617000       0.47147000       0.27053840
    17  C          0.38003000       0.56623000       0.80728160
    18  C          0.61997000       0.43377000       0.19271840
    19  C          0.31543000       0.45433000       0.84192150
    20  C          0.68457000       0.54567000       0.15807850
    21  C          0.28603000       0.30433000       0.79117150
    22  C          0.71397000       0.69567000       0.20882850
    23  C          0.32344000       0.27243000       0.71396160
    24  C          0.67656000       0.72757000       0.28603840
    25  C          0.28573000       0.49813000       0.92542150
    26  C          0.71427000       0.50187000       0.07457850
    27  C          0.23113000       0.40123000       0.96569150
    28  C          0.76887000       0.59877000       0.03430850
    29  C          0.20403000       0.44233000       0.05058140
    30  C          0.79597000       0.55767000       0.94941860
    31  C          0.22973000       0.59123000       0.10155150
    32  C          0.77027000       0.40877000       0.89844850
    33  C          0.20413000       0.62233000       0.18111160
    34  C          0.79587000       0.37767000       0.81888840
    35  C          0.15043000       0.50413000       0.21359140
    36  C          0.84957000       0.49587000       0.78640860
    37  C          0.12183000       0.35603000       0.16483140
    38  C          0.87817000       0.64397000       0.83516860
    39  C          0.14853000       0.32683000       0.08448150
    40  C          0.85147000       0.67317000       0.91551850
    41  C          0.09344000       0.43083000       0.33170170
    42  C          0.90656000       0.56917000       0.66829830
    43  C          0.42244000       0.34444000       0.59732160
    44  C          0.57756000       0.65556000       0.40267840
    45  C          0.24734000       0.34924000       0.53938180
    46  C          0.75266000       0.65076000       0.46061820
    47  H          0.46640000       0.60330000       0.70371600
    48  H          0.53360000       0.39670000       0.29628400
    49  H          0.39340000       0.66430000       0.83911600
    50  H          0.60660000       0.33570000       0.16088400
    51  H          0.24030000       0.22230000       0.81041500
    52  H          0.75970000       0.77770000       0.18958500
    53  H          0.30740000       0.17030000       0.68051700
    54  H          0.69260000       0.82970000       0.31948300
    55  H          0.31940000       0.60530000       0.95321600
    56  H          0.68060000       0.39470000       0.04678400
    57  H          0.21040000       0.28730000       0.93611700
    58  H          0.78960000       0.71270000       0.06388300
    59  H          0.26440000       0.67230000       0.07851700
    60  H          0.73560000       0.32770000       0.92148300
    61  H          0.21940000       0.72630000       0.21201600
    62  H          0.78060000       0.27370000       0.78798400
    63  H          0.08030000       0.27530000       0.18781500
    64  H          0.91970000       0.72470000       0.81218500
    65  H          0.12830000       0.22630000       0.04911500
    66  H          0.87170000       0.77370000       0.95088500
    67  H          0.10040000       0.47930000       0.39131800
    68  H          0.89960000       0.52070000       0.60868200
    69  H          0.52240000       0.42130000       0.60111700
    70  H          0.47760000       0.57870000       0.39888300
    71  H          0.26340000       0.32130000       0.48071800
    72  H          0.73660000       0.67870000       0.51928200
    73  H          0.18740000       0.35630000       0.32751500
    74  H          0.81260000       0.64370000       0.67248500
    75  H          0.97160000       0.37830000       0.30941700
    76  H          0.02840000       0.62170000       0.69058300
    77  H          0.45850000       0.23840000       0.58420000
    78  H          0.54150000       0.76160000       0.41580000
    79  H          0.21840000       0.46640000       0.55320000
    80  H          0.78160000       0.53360000       0.44680000
    81  H          0.13760000       0.27650000       0.54730000
    82  H          0.86240000       0.72350000       0.45270000
    83  N          0.86453000      -0.01333000       0.74594140
    84  N          0.13547000       0.01333000       0.25405860
    85  C          0.86263000       0.00713000       0.68401150
    86  C          0.13737000      -0.00713000       0.31598850
    87  C          0.85925000       0.03964000       0.60537180
    88  C          0.14075000       0.96036000       0.39462820
    89  H          0.95460000       0.96350000       0.58230000
    90  H          0.04540000       0.03650000       0.41770000
    91  H          0.87350000       0.15450000       0.61320000
    92  H          0.12650000       0.84550000       0.38680000
    93  H          0.76250000       0.01940000       0.57620000
    94  H          0.23750000      -0.01940000       0.42380000
    95  O          0.81152000       0.03332000       0.91073110
    96  O          0.18848000       0.96668000       0.08926890
    97  C          0.59323000       0.01252000      -0.00394860
    98  C          0.40677000      -0.01252000       0.00394860
    99  C          0.63043000       0.00803000       0.91610150
   100  C          0.36957000      -0.00803000       0.08389850
   101  C          0.49023000       0.98037000       0.85017150
   102  C          0.50977000       0.01963000       0.14982850
   103  H          0.51430000       0.97170000       0.79951600
   104  H          0.48570000       0.02830000       0.20048400
   105  C          0.30483000       0.95647000       0.86042160
   106  C          0.69517000       0.04353000       0.13957840
   107  H          0.21140000       0.93670000       0.81501500
   108  H          0.78860000       0.06330000       0.18498500
   109  C          0.26293000       0.96037000       0.93571150
   110  C          0.73707000       0.03963000       0.06428850
   111  H          0.13340000       0.95470000       0.94471600
   112  H          0.86660000       0.04530000       0.05528400
   113  H          0.82050000       0.02140000       0.85720000
   114  H          0.17950000       0.97860000       0.14280000
