data_AZEJOE
_symmetry_space_group_name_H-M    'P1'
_symmetry_Int_Tables_number       1
loop_
_symmetry_equiv_pos_site_id
_symmetry_equiv_pos_as_xyz
1 x,y,z
_cell_length_a                   9.6982
_cell_length_b                   17.3334
_cell_length_c                   16.6294
_cell_angle_alpha                90.0
_cell_angle_beta                 91.562
_cell_angle_gamma                90.0
loop_
_atom_site_label
_atom_site_type_symbol
_atom_site_fract_x
_atom_site_fract_y
_atom_site_fract_z
     1  Cl         0.97509000       0.10338700       0.17635600
     2  Cl         0.52491000       0.60338700       0.32364400
     3  Cl         0.02491000       0.89661300       0.82364400
     4  Cl         0.47509000       0.39661300       0.67635600
     5  P          0.31831000       0.97664300       0.40514600
     6  P          0.18169000       0.47664300       0.09485400
     7  P          0.68169000       0.02335700       0.59485400
     8  P          0.81831000       0.52335700       0.90514600
     9  O          0.16343000       0.94258000       0.41391000
    10  O          0.33657000       0.44258000       0.08609000
    11  O          0.83657000       0.05742000       0.58609000
    12  O          0.66343000       0.55742000       0.91391000
    13  O          0.34343000       0.04802000       0.45012000
    14  O          0.15657000       0.54802000       0.04988000
    15  O          0.65657000       0.95198000       0.54988000
    16  O          0.84343000       0.45198000       0.95012000
    17  O          0.61697000       0.04862000       0.22362000
    18  O          0.88303000       0.54862000       0.27638000
    19  O          0.38303000       0.95138000       0.77638000
    20  O          0.11697000       0.45138000       0.72362000
    21  N          0.70036000       0.16232000       0.27152000
    22  N          0.79964000       0.66232000       0.22848000
    23  N          0.29964000       0.83768000       0.72848000
    24  N          0.20036000       0.33768000       0.77152000
    25  N          0.41613000       0.90798000       0.43732000
    26  N          0.08387000       0.40798000       0.06268000
    27  N          0.58387000       0.09202000       0.56268000
    28  N          0.91613000       0.59202000       0.93732000
    29  C          0.32214000       0.98448000       0.29962000
    30  C          0.17786000       0.48448000       0.20038000
    31  C          0.67786000       0.01552000       0.70038000
    32  C          0.82214000       0.51552000       0.79962000
    33  C          0.20544000      -0.00312000       0.25472000
    34  C          0.29456000       0.49688000       0.24528000
    35  C          0.79456000       0.00312000       0.74528000
    36  C          0.70544000       0.50312000       0.75472000
    37  C          0.07314000       0.00682000       0.29422000
    38  C          0.42686000       0.50682000       0.20578000
    39  C          0.92686000      -0.00682000       0.70578000
    40  C          0.57314000       0.49318000       0.79422000
    41  C          0.95726000       0.04632000       0.26192000
    42  C          0.54274000       0.54632000       0.23808000
    43  C          0.04274000       0.95368000       0.73808000
    44  C          0.45726000       0.45368000       0.76192000
    45  C          0.83046000       0.04612000       0.29692000
    46  C          0.66954000       0.54612000       0.20308000
    47  C          0.16954000       0.95388000       0.70308000
    48  C          0.33046000       0.45388000       0.79692000
    49  C          0.81546000       0.00543000       0.36812000
    50  C          0.68454000       0.50543000       0.13188000
    51  C          0.18454000      -0.00543000       0.63188000
    52  C          0.31546000       0.49457000       0.86812000
    53  C          0.92656000       0.97118000       0.40572000
    54  C          0.57344000       0.47118000       0.09428000
    55  C          0.07344000       0.02882000       0.59428000
    56  C          0.42656000       0.52882000       0.90572000
    57  C          0.05384000       0.97428000       0.37032000
    58  C          0.44616000       0.47428000       0.12968000
    59  C          0.94616000       0.02572000       0.62968000
    60  C          0.55384000       0.52572000       0.87032000
    61  C          0.21194000      -0.00782000       0.16512000
    62  C          0.28806000       0.49218000       0.33488000
    63  C          0.78806000       0.00782000       0.83488000
    64  C          0.71194000       0.50782000       0.66512000
    65  C          0.11815000       0.94607000       0.12193000
    66  C          0.38185000       0.44607000       0.37807000
    67  C          0.88185000       0.05393000       0.87807000
    68  C          0.61815000       0.55393000       0.62193000
    69  C          0.12815000       0.93877000       0.03973000
    70  C          0.37185000       0.43877000       0.46027000
    71  C          0.87185000       0.06123000       0.96027000
    72  C          0.62815000       0.56123000       0.53973000
    73  C          0.22896000       0.97657000      -0.00033000
    74  C          0.27104000       0.47657000       0.50033000
    75  C          0.77104000       0.02343000       0.00033000
    76  C          0.72896000       0.52343000       0.49967000
    77  C          0.32235000       0.02083000       0.04143000
    78  C          0.17765000       0.52083000       0.45857000
    79  C          0.67765000       0.97917000       0.95857000
    80  C          0.82235000       0.47917000       0.54143000
    81  C          0.31485000       0.02863000       0.12433000
    82  C          0.18515000       0.52863000       0.37567000
    83  C          0.68515000       0.97137000       0.87567000
    84  C          0.81485000       0.47137000       0.62433000
    85  C          0.70566000       0.08623000       0.25932000
    86  C          0.79434000       0.58623000       0.24068000
    87  C          0.29434000       0.91377000       0.74068000
    88  C          0.20566000       0.41377000       0.75932000
    89  C          0.59335000       0.21443000       0.23933000
    90  C          0.90665000       0.71443000       0.26067000
    91  C          0.40665000       0.78557000       0.76067000
    92  C          0.09335000       0.28557000       0.73933000
    93  C          0.64023000       0.29583000       0.26594000
    94  C          0.85977000       0.79583000       0.23406000
    95  C          0.35977000       0.70417000       0.73406000
    96  C          0.14023000       0.20417000       0.76594000
    97  C          0.45565000       0.19633000       0.27773000
    98  C          0.04435000       0.69633000       0.22227000
    99  C          0.54435000       0.80367000       0.72227000
   100  C          0.95565000       0.30367000       0.77773000
   101  C          0.58034000       0.20873000       0.14883000
   102  C          0.91966000       0.70873000       0.35117000
   103  C          0.41966000       0.79127000       0.85117000
   104  C          0.08034000       0.29127000       0.64883000
   105  C          0.41845000       0.82527000       0.42173000
   106  C          0.08155000       0.32527000       0.07827000
   107  C          0.58155000       0.17473000       0.57827000
   108  C          0.91845000       0.67473000       0.92173000
   109  C          0.34597000       0.80157000       0.34914000
   110  C          0.15403000       0.30157000       0.15086000
   111  C          0.65403000       0.19843000       0.65086000
   112  C          0.84597000       0.69843000       0.84914000
   113  C          0.36020000       0.78636000       0.48406000
   114  C          0.13980000       0.28636000       0.01594000
   115  C          0.63980000       0.21364000       0.51594000
   116  C          0.86020000       0.71364000       0.98406000
   117  C          0.56098000       0.80196000       0.42167000
   118  C          0.93902000       0.30196000       0.07833000
   119  C          0.43902000       0.19804000       0.57833000
   120  C          0.06098000       0.69804000       0.92167000
   121  H          0.78360000       0.18290000       0.29850000
   122  H          0.71640000       0.68290000       0.20150000
   123  H          0.21640000       0.81710000       0.70150000
   124  H          0.28360000       0.31710000       0.79850000
   125  H          0.48740000       0.92490000       0.47440000
   126  H          0.01260000       0.42490000       0.02560000
   127  H          0.51260000       0.07510000       0.52560000
   128  H         -0.01260000       0.57510000       0.97440000
   129  H          0.42320000       0.98130000       0.27040000
   130  H          0.07680000       0.48130000       0.22960000
   131  H          0.57680000       0.01870000       0.72960000
   132  H          0.92320000       0.51870000       0.77040000
   133  H          0.73190000       0.00870000       0.39650000
   134  H          0.76810000       0.50870000       0.10350000
   135  H          0.26810000       0.99130000       0.60350000
   136  H          0.23190000       0.49130000       0.89650000
   137  H          0.91740000       0.93900000       0.46480000
   138  H          0.58260000       0.43900000       0.03520000
   139  H          0.08260000       0.06100000       0.53520000
   140  H          0.41740000       0.56100000       0.96480000
   141  H          0.04250000       0.91900000       0.15150000
   142  H          0.45750000       0.41900000       0.34850000
   143  H          0.95750000       0.08100000       0.84850000
   144  H          0.54250000       0.58100000       0.65150000
   145  H          0.06350000       0.90370000       0.00970000
   146  H          0.43650000       0.40370000       0.49030000
   147  H          0.93650000       0.09630000       0.99030000
   148  H          0.56350000       0.59630000       0.50970000
   149  H          0.23760000       0.97060000       0.94280000
   150  H          0.26240000       0.47060000       0.55720000
   151  H          0.76240000       0.02940000       0.05720000
   152  H          0.73760000       0.52940000       0.44280000
   153  H          0.39160000       0.04960000       0.01230000
   154  H          0.10840000       0.54960000       0.48770000
   155  H          0.60840000       0.95040000       0.98770000
   156  H          0.89160000       0.45040000       0.51230000
   157  H          0.38490000       0.06030000       0.15550000
   158  H          0.11510000       0.56030000       0.34450000
   159  H          0.61510000       0.93970000       0.84450000
   160  H          0.88490000       0.43970000       0.65550000
   161  H          0.57400000       0.33480000       0.25160000
   162  H          0.92600000       0.83480000       0.24840000
   163  H          0.42600000       0.66520000       0.74840000
   164  H          0.07400000       0.16520000       0.75160000
   165  H          0.69130000       0.31120000       0.33220000
   166  H          0.80870000       0.81120000       0.16780000
   167  H          0.30870000       0.68880000       0.66780000
   168  H          0.19130000       0.18880000       0.83220000
   169  H          0.71840000       0.30550000       0.22970000
   170  H          0.78160000       0.80550000       0.27030000
   171  H          0.28160000       0.69450000       0.77030000
   172  H          0.21840000       0.19450000       0.72970000
   173  H          0.36880000       0.22960000       0.24900000
   174  H          0.13120000       0.72960000       0.25100000
   175  H          0.63120000       0.77040000       0.75100000
   176  H          0.86880000       0.27040000       0.74900000
   177  H          0.45810000       0.20760000       0.33580000
   178  H          0.04190000       0.70760000       0.16420000
   179  H          0.54190000       0.79240000       0.66420000
   180  H          0.95810000       0.29240000       0.83580000
   181  H          0.43330000       0.14110000       0.27470000
   182  H          0.06670000       0.64110000       0.22530000
   183  H          0.56670000       0.85890000       0.72530000
   184  H          0.93330000       0.35890000       0.77470000
   185  H          0.67130000       0.21600000       0.12960000
   186  H          0.82870000       0.71600000       0.37040000
   187  H          0.32870000       0.78400000       0.87040000
   188  H          0.17130000       0.28400000       0.62960000
   189  H          0.51740000       0.24410000       0.12220000
   190  H          0.98260000       0.74410000       0.37780000
   191  H          0.48260000       0.75590000       0.87780000
   192  H          0.01740000       0.25590000       0.62220000
   193  H          0.54890000       0.15650000       0.12910000
   194  H          0.95110000       0.65650000       0.37090000
   195  H          0.45110000       0.84350000       0.87090000
   196  H          0.04890000       0.34350000       0.62910000
   197  H          0.27460000       0.81670000       0.32390000
   198  H          0.22540000       0.31670000       0.17610000
   199  H          0.72540000       0.18330000       0.67610000
   200  H          0.77460000       0.68330000       0.82390000
   201  H          0.32980000       0.74700000       0.35980000
   202  H          0.17020000       0.24700000       0.14020000
   203  H          0.67020000       0.25300000       0.64020000
   204  H          0.82980000       0.75300000       0.85980000
   205  H          0.41910000       0.80290000       0.31020000
   206  H          0.08090000       0.30290000       0.18980000
   207  H          0.58090000       0.19710000       0.68980000
   208  H          0.91910000       0.69710000       0.81020000
   209  H          0.24170000       0.79940000       0.48810000
   210  H          0.25830000       0.29940000       0.01190000
   211  H          0.75830000       0.20060000       0.51190000
   212  H          0.74170000       0.70060000       0.98810000
   213  H          0.34160000       0.72950000       0.48570000
   214  H          0.15840000       0.22950000       0.01430000
   215  H          0.65840000       0.27050000       0.51430000
   216  H          0.84160000       0.77050000       0.98570000
   217  H          0.37430000       0.79870000       0.54240000
   218  H          0.12570000       0.29870000       0.95760000
   219  H          0.62570000       0.20130000       0.45760000
   220  H          0.87430000       0.70130000       0.04240000
   221  H          0.61290000       0.81840000       0.39490000
   222  H          0.88710000       0.31840000       0.10510000
   223  H          0.38710000       0.18160000       0.60510000
   224  H          0.11290000       0.68160000       0.89490000
   225  H          0.59040000       0.81090000       0.48650000
   226  H          0.90960000       0.31090000       0.01350000
   227  H          0.40960000       0.18910000       0.51350000
   228  H          0.09040000       0.68910000       0.98650000
   229  H          0.55770000       0.74180000       0.42990000
   230  H          0.94230000       0.24180000       0.07010000
   231  H          0.44230000       0.25820000       0.57010000
   232  H          0.05770000       0.75820000       0.92990000
   233  O          0.93714000       0.23203000       0.35204000
   234  O          0.56286000       0.73203000       0.14796000
   235  O          0.06286000       0.76797000       0.64796000
   236  O          0.43714000       0.26797000       0.85204000
   237  C          0.02686000       0.25143000       0.38813000
   238  C          0.47314000       0.75143000       0.11187000
   239  C          0.97314000       0.74857000       0.61187000
   240  C          0.52686000       0.24857000       0.88813000
   241  C          0.04720000       0.32926000       0.39706000
   242  C          0.45280000       0.82926000       0.10294000
   243  C          0.95280000       0.67074000       0.60294000
   244  C          0.54720000       0.17074000       0.89706000
   245  C          0.11910000       0.20307000       0.42076000
   246  C          0.38090000       0.70307000       0.07924000
   247  C          0.88090000       0.79693000       0.57924000
   248  C          0.61910000       0.29693000       0.92076000
   249  H          0.02140000       0.33250000       0.45700000
   250  H          0.47860000       0.83250000       0.04300000
   251  H          0.97860000       0.66750000       0.54300000
   252  H          0.52140000       0.16750000       0.95700000
   253  H          0.96600000       0.36090000       0.37130000
   254  H          0.53400000       0.86090000       0.12870000
   255  H          0.03400000       0.63910000       0.62870000
   256  H          0.46600000       0.13910000       0.87130000
   257  H          0.12380000       0.35400000       0.38760000
   258  H          0.37620000       0.85400000       0.11240000
   259  H          0.87620000       0.64600000       0.61240000
   260  H          0.62380000       0.14600000       0.88760000
   261  H          0.08710000       0.14820000       0.41200000
   262  H          0.41290000       0.64820000       0.08800000
   263  H          0.91290000       0.85180000       0.58800000
   264  H          0.58710000       0.35180000       0.91200000
   265  H          0.20610000       0.20760000       0.40690000
   266  H          0.29390000       0.70760000       0.09310000
   267  H          0.79390000       0.79240000       0.59310000
   268  H          0.70610000       0.29240000       0.90690000
   269  H          0.11460000       0.20590000       0.48190000
   270  H          0.38540000       0.70590000       0.01810000
   271  H          0.88540000       0.79410000       0.51810000
   272  H          0.61460000       0.29410000       0.98190000
