data_AZIVEN
_symmetry_space_group_name_H-M    'P1'
_symmetry_Int_Tables_number       1
loop_
_symmetry_equiv_pos_site_id
_symmetry_equiv_pos_as_xyz
1 x,y,z
_cell_length_a                   14.5073
_cell_length_b                   9.343617
_cell_length_c                   14.1343
_cell_angle_alpha                90.0
_cell_angle_beta                 90.0
_cell_angle_gamma                90.0
loop_
_atom_site_label
_atom_site_type_symbol
_atom_site_fract_x
_atom_site_fract_y
_atom_site_fract_z
     1  C          0.17592000       0.24703000       0.46902000
     2  C          0.32408000       0.75297000       0.96902000
     3  C          0.82408000       0.24703000       0.46902000
     4  C          0.67592000       0.75297000       0.96902000
     5  H          0.11300000       0.27410000       0.47450000
     6  H          0.38700000       0.72590000       0.97450000
     7  H          0.88700000       0.27410000       0.47450000
     8  H          0.61300000       0.72590000       0.97450000
     9  C          0.20743190       0.11523000       0.43972000
    10  C          0.29256810       0.88477000       0.93972000
    11  C          0.79256810       0.11523000       0.43972000
    12  C          0.70743190       0.88477000       0.93972000
    13  H          0.17050000       0.03610000       0.42120000
    14  H          0.32950000       0.96390000       0.92120000
    15  H          0.82950000       0.03610000       0.42120000
    16  H          0.67050000       0.96390000       0.92120000
    17  C          0.30432190       0.11913000       0.44212000
    18  C          0.19567810       0.88087000       0.94212000
    19  C          0.69567810       0.11913000       0.44212000
    20  C          0.80432190       0.88087000       0.94212000
    21  H          0.34490000       0.04340000       0.42540000
    22  H          0.15510000       0.95660000       0.92540000
    23  H          0.65510000       0.04340000       0.42540000
    24  H          0.84490000       0.95660000       0.92540000
    25  C          0.32942180       0.25463000       0.47342000
    26  C          0.17057820       0.74537000       0.97342000
    27  C          0.67057820       0.25463000       0.47342000
    28  C          0.82942180       0.74537000       0.97342000
    29  C          0.41769170       0.31883000       0.48752000
    30  C          0.08230830       0.68117000       0.98752000
    31  C          0.58230830       0.31883000       0.48752000
    32  C          0.91769170       0.68117000       0.98752000
    33  C          0.50000000       0.24404000       0.48293000
    34  C         -0.00000000       0.75596000       0.98293000
    35  H          0.50000000       0.14280000       0.47650000
    36  H         -0.00000000       0.85720000       0.97650000
    37  C          0.50000000       0.62994000       0.61853000
    38  C         -0.00000000       0.37006000       0.11853000
    39  C          0.50000000       0.59495000       0.71424000
    40  C         -0.00000000       0.40505000       0.21424000
    41  H          0.50000000       0.49750000       0.73330000
    42  H         -0.00000000       0.50250000       0.23330000
    43  C          0.50000000       0.70305000       0.78173000
    44  C         -0.00000000       0.29695000       0.28173000
    45  H          0.50000000       0.67830000       0.84690000
    46  H         -0.00000000       0.32170000       0.34690000
    47  C          0.50000000       0.84645000       0.75593000
    48  C         -0.00000000       0.15355000       0.25593000
    49  H          0.50000000       0.91890000       0.80310000
    50  H          0.00000000       0.08110000       0.30310000
    51  C          0.50000000       0.88314000       0.66123000
    52  C         -0.00000000       0.11686000       0.16123000
    53  H          0.50000000       0.98060000       0.64230000
    54  H         -0.00000000       0.01940000       0.14230000
    55  C          0.50000000       0.77484000       0.59493000
    56  C         -0.00000000       0.22516000       0.09493000
    57  C          0.50000000       0.79064000       0.49013000
    58  C          0.00000000       0.20936000      -0.00987000
    59  N          0.24924140       0.33153000       0.48867180
    60  N          0.25075860       0.66847000       0.98867180
    61  N          0.75075860       0.33153000       0.48867180
    62  N          0.74924140       0.66847000       0.98867180
    63  H          0.24640000       0.42080000       0.50810000
    64  H          0.25360000       0.57920000       0.00810000
    65  H          0.75360000       0.42080000       0.50810000
    66  H          0.74640000       0.57920000       0.00810000
    67  O          0.41565120       0.45693190       0.50576180
    68  O          0.08434880       0.54306810       0.00576180
    69  O          0.58434880       0.45693190       0.50576180
    70  O          0.91565120       0.54306810       0.00576180
    71  O          0.50000000       0.66063000       0.44972000
    72  O         -0.00000000       0.33937000       0.94972000
    73  O          0.50000000       0.89983000       0.44452000
    74  O         -0.00000000       0.10017000       0.94452000
    75  B          0.50000000       0.54414000       0.52124000
    76  B         -0.00000000       0.45586000       0.02124000
    77  C          0.32461190       0.75953000       0.30252000
    78  C          0.17538810       0.24047000       0.80252000
    79  C          0.67538810       0.75953000       0.30252000
    80  C          0.82461190       0.24047000       0.80252000
    81  H          0.38740000       0.74910000       0.32040000
    82  H          0.11260000       0.25090000       0.82040000
    83  H          0.61260000       0.74910000       0.32040000
    84  H          0.88740000       0.25090000       0.82040000
    85  C          0.29315180       0.81693000       0.21812000
    86  C          0.20684820       0.18307000       0.71812000
    87  C          0.70684820       0.81693000       0.21812000
    88  C          0.79315180       0.18307000       0.71812000
    89  H          0.33020000       0.85150000       0.16770000
    90  H          0.16980000       0.14850000       0.66770000
    91  H          0.66980000       0.85150000       0.16770000
    92  H          0.83020000       0.14850000       0.66770000
    93  C          0.19679180       0.81433000       0.22072000
    94  C          0.30320820       0.18567000       0.72072000
    95  C          0.80320820       0.81433000       0.22072000
    96  C          0.69679180       0.18567000       0.72072000
    97  H          0.15630000       0.84770000       0.17280000
    98  H          0.34370000       0.15230000       0.67280000
    99  H          0.84370000       0.84770000       0.17280000
   100  H          0.65630000       0.15230000       0.67280000
   101  C          0.17131170       0.75353000       0.30722000
   102  C          0.32868830       0.24647000       0.80722000
   103  C          0.82868830       0.75353000       0.30722000
   104  C          0.67131170       0.24647000       0.80722000
   105  C          0.08299170       0.71973000       0.34572000
   106  C          0.41700830       0.28027000       0.84572000
   107  C          0.91700830       0.71973000       0.34572000
   108  C          0.58299170       0.28027000       0.84572000
   109  C         -0.00000000       0.76944000       0.30903000
   110  C          0.50000000       0.23056000       0.80903000
   111  H         -0.00000000       0.83730000       0.25900000
   112  H          0.50000000       0.16270000       0.75900000
   113  C          0.00000000       0.74104000       0.56453000
   114  C          0.50000000       0.25896000       0.06453000
   115  C         -0.00000000       0.89065000       0.57104000
   116  C          0.50000000       0.10935000       0.07104000
   117  H         -0.00000000       0.94710000       0.51510000
   118  H          0.50000000       0.05290000       0.01510000
   119  C         -0.00000000       0.95635000       0.65914000
   120  C          0.50000000       0.04365000       0.15914000
   121  H         -0.00000000       0.05770000       0.66350000
   122  H          0.50000000       0.94230000       0.16350000
   123  C         -0.00000000       0.87266000       0.74223000
   124  C          0.50000000       0.12734000       0.24223000
   125  H         -0.00000000       0.91820000       0.80220000
   126  H          0.50000000       0.08180000       0.30220000
   127  C         -0.00000000       0.72266000       0.73703000
   128  C          0.50000000       0.27734000       0.23703000
   129  H         -0.00000000       0.66520000       0.79250000
   130  H          0.50000000       0.33480000       0.29250000
   131  C          0.00000000       0.66175000       0.64763000
   132  C          0.50000000       0.33825000       0.14763000
   133  C         -0.00000000       0.50585000       0.62463000
   134  C          0.50000000       0.49415000       0.12463000
   135  N          0.25105130       0.72093000       0.35507180
   136  N          0.24894870       0.27907000       0.85507180
   137  N          0.74894870       0.72093000       0.35507180
   138  N          0.75105130       0.27907000       0.85507180
   139  H          0.25370000       0.68090000       0.41140000
   140  H          0.24630000       0.31910000       0.91140000
   141  H          0.74630000       0.68090000       0.41140000
   142  H          0.75370000       0.31910000       0.91140000
   143  B         -0.00000000       0.62745000       0.47993000
   144  B          0.50000000       0.37255000       0.97993000
   145  O          0.08388120       0.63262000       0.41952140
   146  O          0.41611880       0.36738000       0.91952140
   147  O          0.91611880       0.63262000       0.41952140
   148  O          0.58388120       0.36738000       0.91952140
   149  O         -0.00000000       0.48763000       0.53052000
   150  O          0.50000000       0.51237000       0.03052000
   151  O         -0.00000000       0.40604000       0.67962000
   152  O          0.50000000       0.59396000       0.17962000
   153  C          0.24973190       0.83223000       0.64923000
   154  C          0.25026810       0.16777000       0.14923000
   155  C          0.75026810       0.83223000       0.64923000
   156  C          0.74973190       0.16777000       0.14923000
   157  H          0.26020000       0.88080000       0.58870000
   158  H          0.23980000       0.11920000       0.08870000
   159  H          0.73980000       0.88080000       0.58870000
   160  H          0.76020000       0.11920000       0.08870000
   161  H          0.30030000       0.85460000       0.69270000
   162  H          0.19970000       0.14540000       0.19270000
   163  H          0.69970000       0.85460000       0.69270000
   164  H          0.80030000       0.14540000       0.19270000
   165  H          0.19140000       0.86500000       0.67660000
   166  H          0.30860000       0.13500000       0.17660000
   167  H          0.80860000       0.86500000       0.67660000
   168  H          0.69140000       0.13500000       0.17660000
   169  C          0.24566150       0.67403000       0.63352000
   170  C          0.25433850       0.32597000       0.13352000
   171  C          0.75433850       0.67403000       0.63352000
   172  C          0.74566150       0.32597000       0.13352000
   173  C          0.24082190       0.58093000       0.71982000
   174  C          0.25917810       0.41907000       0.21982000
   175  C          0.75917810       0.58093000       0.71982000
   176  C          0.74082190       0.41907000       0.21982000
   177  H          0.23590000       0.48040000       0.70050000
   178  H          0.26410000       0.51960000       0.20050000
   179  H          0.76410000       0.48040000       0.70050000
   180  H          0.73590000       0.51960000       0.20050000
   181  H          0.18670000       0.60720000       0.75740000
   182  H          0.31330000       0.39280000       0.25740000
   183  H          0.81330000       0.60720000       0.75740000
   184  H          0.68670000       0.39280000       0.25740000
   185  H          0.29670000       0.59410000       0.75780000
   186  H          0.20330000       0.40590000       0.25780000
   187  H          0.70330000       0.59410000       0.75780000
   188  H          0.79670000       0.40590000       0.25780000
   189  O          0.24616110       0.62272000       0.55406170
   190  O          0.25383890       0.37728000       0.05406170
   191  O          0.75383890       0.62272000       0.55406170
   192  O          0.74616110       0.37728000       0.05406170
