data_AZUDIL
_symmetry_space_group_name_H-M    'P1'
_symmetry_Int_Tables_number       1
loop_
_symmetry_equiv_pos_site_id
_symmetry_equiv_pos_as_xyz
1 x,y,z
_cell_length_a                   3.661101
_cell_length_b                   32.137612
_cell_length_c                   12.24415
_cell_angle_alpha                90.0
_cell_angle_beta                 92.5312
_cell_angle_gamma                90.0
loop_
_atom_site_label
_atom_site_type_symbol
_atom_site_fract_x
_atom_site_fract_y
_atom_site_fract_z
     1  F          0.23952000       0.46398200       0.00421700
     2  F          0.76048000       0.96398200       0.49578300
     3  F          0.76048000       0.53601800      -0.00421700
     4  F          0.23952000       0.03601800       0.50421700
     5  F          0.01873000       0.49071300       0.63010300
     6  F         -0.01873000       0.99071300       0.86989700
     7  F         -0.01873000       0.50928700       0.36989700
     8  F          0.01873000       0.00928700       0.13010300
     9  F          0.68988000       0.36205200       0.77745400
    10  F          0.31012000       0.86205200       0.72254600
    11  F          0.31012000       0.63794800       0.22254600
    12  F          0.68988000       0.13794800       0.27745400
    13  F          0.29392000       0.28032200       0.24088600
    14  F          0.70608000       0.78032200       0.25911400
    15  F          0.70608000       0.71967800       0.75911400
    16  F          0.29392000       0.21967800       0.74088600
    17  F          0.15482000       0.15147200       0.06356700
    18  F          0.84518000       0.65147200       0.43643300
    19  F          0.84518000       0.84852800       0.93643300
    20  F          0.15482000       0.34852800       0.56356700
    21  F          0.74528000       0.27368200       0.88784400
    22  F          0.25472000       0.77368200       0.61215600
    23  F          0.25472000       0.72631800       0.11215600
    24  F          0.74528000       0.22631800       0.38784400
    25  N          0.94007000       0.38664300       0.98857100
    26  N          0.05993000       0.88664300       0.51142900
    27  N          0.05993000       0.61335700       0.01142900
    28  N          0.94007000       0.11335700       0.48857100
    29  N         -0.03233000       0.32252300       0.07121800
    30  N          0.03233000       0.82252300       0.42878200
    31  N          0.03233000       0.67747700       0.92878200
    32  N         -0.03233000       0.17747700       0.57121800
    33  C         -0.03013000       0.41170300       0.89527900
    34  C          0.03013000       0.91170300       0.60472100
    35  C          0.03013000       0.58829700       0.10472100
    36  C         -0.03013000       0.08829700       0.39527900
    37  C          0.11273000       0.45188400       0.90453900
    38  C          0.88727000       0.95188400       0.59546100
    39  C          0.88727000       0.54811600       0.09546100
    40  C          0.11273000       0.04811600       0.40453900
    41  C          0.13063000       0.47937400       0.81811890
    42  C          0.86937000       0.97937400       0.68188110
    43  C          0.86937000       0.52062600       0.18188110
    44  C          0.13063000       0.02062600       0.31811890
    45  H          0.22640000       0.50670000       0.82760000
    46  H          0.77360000       0.00670000       0.67240000
    47  H          0.77360000       0.49330000       0.17240000
    48  H          0.22640000       0.99330000       0.32760000
    49  C          0.00184000       0.46506400       0.71738890
    50  C         -0.00184000       0.96506400       0.78261110
    51  C         -0.00184000       0.53493600       0.28261110
    52  C          0.00184000       0.03493600       0.21738890
    53  C          0.85757000       0.42574400       0.70044900
    54  C          0.14243000       0.92574400       0.79955100
    55  C          0.14243000       0.57425600       0.29955100
    56  C          0.85757000       0.07425600       0.20044900
    57  H          0.77280000       0.41670000       0.63000000
    58  H          0.22720000       0.91670000       0.87000000
    59  H          0.22720000       0.58330000       0.37000000
    60  H          0.77280000       0.08330000       0.13000000
    61  C          0.84287000       0.40025300       0.79082900
    62  C          0.15713000       0.90025300       0.70917100
    63  C          0.15713000       0.59974700       0.20917100
    64  C          0.84287000       0.09974700       0.29082900
    65  C          0.01763000       0.34646300       0.98607100
    66  C         -0.01763000       0.84646300       0.51392900
    67  C         -0.01763000       0.65353700       0.01392900
    68  C          0.01763000       0.15353700       0.48607100
    69  H          0.11070000       0.33470000       0.92180000
    70  H          0.88930000       0.83470000       0.57820000
    71  H          0.88930000       0.66530000       0.07820000
    72  H          0.11070000       0.16530000       0.42180000
    73  C          0.02463000       0.27927400       0.06421900
    74  C         -0.02463000       0.77927400       0.43578100
    75  C         -0.02463000       0.72072600       0.93578100
    76  C          0.02463000       0.22072600       0.56421900
    77  C          0.18023000       0.25770400       0.15328900
    78  C          0.81977000       0.75770400       0.34671100
    79  C          0.81977000       0.74229600       0.84671100
    80  C          0.18023000       0.24229600       0.65328900
    81  C          0.22583000       0.21510400       0.15629100
    82  C          0.77417000       0.71510400       0.34370900
    83  C          0.77417000       0.78489600       0.84370900
    84  C          0.22583000       0.28489600       0.65629100
    85  H          0.33220000       0.20140000       0.21870000
    86  H          0.66780000       0.70140000       0.28130000
    87  H          0.66780000       0.79860000       0.78130000
    88  H          0.33220000       0.29860000       0.71870000
    89  C          0.10893000       0.19330400       0.06398100
    90  C          0.89107000       0.69330400       0.43601900
    91  C          0.89107000       0.80669600       0.93601900
    92  C          0.10893000       0.30669600       0.56398100
    93  C          0.94997000       0.21184400       0.97199900
    94  C          0.05003000       0.71184400       0.52800100
    95  C          0.05003000       0.78815600       0.02800100
    96  C          0.94997000       0.28815600       0.47199900
    97  H          0.87210000       0.19610000       0.90960000
    98  H          0.12790000       0.69610000       0.59040000
    99  H          0.12790000       0.80390000       0.09040000
   100  H          0.87210000       0.30390000       0.40960000
   101  C          0.91007000       0.25454400       0.97541100
   102  C          0.08993000       0.75454400       0.52458900
   103  C          0.08993000       0.74545600       0.02458900
   104  C          0.91007000       0.24545600       0.47541100
   105  H          0.85310000       0.39931000       0.05130000
   106  H          0.14690000       0.89931000       0.44870000
   107  H          0.14690000       0.60069000       0.94870000
   108  H          0.85310000       0.10069000       0.55130000
   109  O          0.68447000       0.41831300       0.18189800
   110  O          0.31553000       0.91831300       0.31810200
   111  O          0.31553000       0.58168700       0.81810200
   112  O          0.68447000       0.08168700       0.68189800
   113  O          0.79367000       0.35790300       0.26696800
   114  O          0.20633000       0.85790300       0.23303200
   115  O          0.20633000       0.64209700       0.73303200
   116  O          0.79367000       0.14209700       0.76696800
   117  C          0.68737000       0.39566400       0.26566100
   118  C          0.31263000       0.89566400       0.23433900
   119  C          0.31263000       0.60433600       0.73433900
   120  C          0.68737000       0.10433600       0.76566100
   121  C          0.56386000       0.41345500       0.37084120
   122  C          0.43614000       0.91345500       0.12915880
   123  C          0.43614000       0.58654500       0.62915880
   124  C          0.56386000       0.08654500       0.87084120
   125  H          0.41180000       0.43800000       0.35550000
   126  H          0.58820000       0.93800000       0.14450000
   127  H          0.58820000       0.56200000       0.64450000
   128  H          0.41180000       0.06200000       0.85550000
   129  H          0.77780000       0.42140000       0.41710000
   130  H          0.22220000       0.92140000       0.08290000
   131  H          0.22220000       0.57860000       0.58290000
   132  H          0.77780000       0.07860000       0.91710000
   133  H          0.42140000       0.39260000       0.40880000
   134  H          0.57860000       0.89260000       0.09120000
   135  H          0.57860000       0.60740000       0.59120000
   136  H          0.42140000       0.10740000       0.90880000
   137  H          0.83490000       0.34761100       0.20361800
   138  H          0.16510000       0.84761100       0.29638200
   139  H          0.16510000       0.65238900       0.79638200
   140  H          0.83490000       0.15238900       0.70361800
