data_BACREF
_symmetry_space_group_name_H-M    'P1'
_symmetry_Int_Tables_number       1
loop_
_symmetry_equiv_pos_site_id
_symmetry_equiv_pos_as_xyz
1 x,y,z
_cell_length_a                   7.80927
_cell_length_b                   12.760216
_cell_length_c                   19.3232
_cell_angle_alpha                97.5331
_cell_angle_beta                 92.7379
_cell_angle_gamma                107.4489
loop_
_atom_site_label
_atom_site_type_symbol
_atom_site_fract_x
_atom_site_fract_y
_atom_site_fract_z
     1  Br         0.94160300       0.66966500       0.04906300
     2  Br         0.05839700       0.33033500       0.95093700
     3  Br         0.23656700       0.62081400       0.59672300
     4  Br         0.76343300       0.37918600       0.40327700
     5  C          0.00066000       0.66444000       0.14303000
     6  C         -0.00066000       0.33556000       0.85697000
     7  C          0.03736000       0.57304000       0.16393000
     8  C          0.96264000       0.42696000       0.83607000
     9  C          0.07776000       0.56954000       0.23313000
    10  C          0.92224000       0.43046000       0.76687000
    11  C          0.08236000       0.65574000       0.28593000
    12  C          0.91764000       0.34426000       0.71407000
    13  C          0.04386000       0.74714000       0.26413000
    14  C          0.95614000       0.25286000       0.73587000
    15  C          0.00496000       0.75174000       0.19493000
    16  C         -0.00496000       0.24826000       0.80507000
    17  C          0.18907000       0.62954000       0.50173000
    18  C          0.81093000       0.37046000       0.49827000
    19  C          0.03297000       0.64774000       0.47903000
    20  C          0.96703000       0.35226000       0.52097000
    21  C         -0.00257000       0.65794000       0.40983000
    22  C          0.00257000       0.34206000       0.59017000
    23  C          0.12106000       0.64934000       0.35993000
    24  C          0.87894000       0.35066000       0.64007000
    25  C          0.27567000       0.62914000       0.38463000
    26  C          0.72433000       0.37086000       0.61537000
    27  C          0.31087000       0.61904000       0.45333000
    28  C          0.68913000       0.38096000       0.54667000
    29  F          0.02924000       0.48522000       0.11536160
    30  F          0.97076000       0.51478000       0.88463840
    31  F          0.97046000       0.84292000       0.17779180
    32  F          0.02954000       0.15708000       0.82220820
    33  F          0.04414000       0.83282000       0.31274170
    34  F          0.95586000       0.16718000       0.68725830
    35  F          0.11184000       0.47882000       0.25053160
    36  F          0.88816000       0.52118000       0.74946840
    37  F          0.90766000       0.65432000       0.52301170
    38  F          0.09234000       0.34568000       0.47698830
    39  F          0.46564000       0.60312000       0.47337180
    40  F          0.53436000       0.39688000       0.52662820
    41  F          0.39924000       0.62142000       0.33911170
    42  F          0.60076000       0.37858000       0.66088830
    43  F          0.84276000       0.67332000       0.38973160
    44  F          0.15724000       0.32668000       0.61026840
    45  Br         0.25557700       0.15581400       0.04204300
    46  Br         0.74442300       0.84418600       0.95795700
    47  Br         0.32798700       0.11367400       0.59946300
    48  Br         0.67201300       0.88632600       0.40053700
    49  C          0.26646000       0.14464000       0.13753000
    50  C          0.73354000       0.85536000       0.86247000
    51  C          0.30356000       0.05554000       0.16243000
    52  C          0.69644000       0.94446000       0.83757000
    53  C          0.31386000       0.04944000       0.23163000
    54  C          0.68614000       0.95056000       0.76837000
    55  C          0.28586000       0.13084000       0.28203000
    56  C          0.71414000       0.86916000       0.71797000
    57  C          0.24836000       0.21964000       0.25613000
    58  C          0.75164000       0.78036000       0.74387000
    59  C          0.23956000       0.22694000       0.18613000
    60  C          0.76044000       0.77306000       0.81387000
    61  C          0.31337000       0.11754000       0.50333000
    62  C          0.68663000       0.88246000       0.49667000
    63  C          0.15816000       0.12174000       0.46773000
    64  C          0.84184000       0.87826000       0.53227000
    65  C          0.14926000       0.12534000       0.39673000
    66  C          0.85074000       0.87466000       0.60327000
    67  C          0.29456000       0.12334000       0.35763000
    68  C          0.70544000       0.87666000       0.64237000
    69  C          0.44706000       0.11724000       0.39403000
    70  C          0.55294000       0.88276000       0.60597000
    71  C          0.45836000       0.11594000       0.46473000
    72  C          0.54164000       0.88406000       0.53527000
    73  F          0.32944000       0.97338000       0.11633160
    74  F          0.67056000       0.02662000       0.88366840
    75  F          0.20184000       0.31372000       0.16422160
    76  F          0.79816000       0.68628000       0.83577840
    77  F          0.22144000       0.30112000       0.30166160
    78  F          0.77856000       0.69888000       0.69833840
    79  F          0.35114000       0.96158000       0.25304160
    80  F          0.64886000       0.03842000       0.74695840
    81  F          0.01203000       0.12052000       0.50186160
    82  F         -0.01203000       0.87948000       0.49813840
    83  F          0.61293000       0.11312000       0.49705170
    84  F          0.38707000       0.88688000       0.50294830
    85  F          0.59043000       0.11342000       0.35892160
    86  F          0.40957000       0.88658000       0.64107840
    87  F         -0.00483000       0.12872000       0.36451160
    88  F          0.00483000       0.87128000       0.63548840
    89  C          0.68276000       0.35014000       0.19623000
    90  C          0.31724000       0.64986000       0.80377000
    91  C          0.72996000       0.24964000       0.17013000
    92  C          0.27004000       0.75036000       0.82987000
    93  C          0.76816000       0.18594000       0.21833000
    94  C          0.23184000       0.81406000       0.78167000
    95  C          0.80277000       0.08694000       0.19443000
    96  C          0.19723000       0.91306000       0.80557000
    97  C          0.79927000       0.05224000       0.12383000
    98  C          0.20073000       0.94776000       0.87617000
    99  C          0.76427000       0.11764000       0.07553000
   100  C          0.23573000       0.88236000       0.92447000
   101  C          0.73007000       0.21514000       0.09863000
   102  C          0.26993000       0.78486000       0.90137000
   103  C          0.62577000       0.48344000       0.25803000
   104  C          0.37423000       0.51656000       0.74197000
   105  C          0.59116000       0.49434000       0.19113000
   106  C          0.40884000       0.50566000       0.80887000
   107  C          0.53166000       0.57324000       0.15573000
   108  C          0.46834000       0.42676000       0.84427000
   109  C          0.55767000       0.68094000       0.19273000
   110  C          0.44233000       0.31906000       0.80727000
   111  C          0.50457000       0.75754000       0.15923000
   112  C          0.49543000       0.24246000       0.84077000
   113  C          0.42977000       0.73054000       0.09053000
   114  C          0.57023000       0.26946000       0.90947000
   115  C          0.40287000       0.62504000       0.05463000
   116  C          0.59713000       0.37496000       0.94537000
   117  C          0.45257000       0.54644000       0.08723000
   118  C          0.54743000       0.45356000       0.91277000
   119  H          0.77960000       0.22170000       0.26700000
   120  H          0.22040000       0.77830000       0.73300000
   121  H          0.84870000       0.04880000       0.22790000
   122  H          0.15130000       0.95120000       0.77210000
   123  H          0.81090000       0.98260000       0.10010000
   124  H          0.18910000       0.01740000       0.89990000
   125  H          0.76510000       0.08650000       0.02620000
   126  H          0.23490000       0.91350000       0.97380000
   127  H          0.68540000       0.25070000       0.06300000
   128  H          0.31460000       0.74930000       0.93700000
   129  H          0.62590000       0.53310000       0.30090000
   130  H          0.37410000       0.46690000       0.69910000
   131  H          0.60880000       0.69380000       0.24180000
   132  H          0.39120000       0.30620000       0.75820000
   133  H          0.51880000       0.83070000       0.18510000
   134  H          0.48120000       0.16930000       0.81490000
   135  H          0.37720000       0.78090000       0.06930000
   136  H          0.62280000       0.21910000       0.93070000
   137  H          0.35940000       0.61110000       0.00460000
   138  H          0.64060000       0.38890000      -0.00460000
   139  H          0.41790000       0.47000000       0.06390000
   140  H          0.58210000       0.53000000       0.93610000
   141  N          0.68236000       0.39303000       0.26152000
   142  N          0.31764000       0.60697000       0.73848000
   143  O          0.62804000       0.40683000       0.14930190
   144  O          0.37196000       0.59317000       0.85069810
