data_BAFTEH
_symmetry_space_group_name_H-M    'P1'
_symmetry_Int_Tables_number       1
loop_
_symmetry_equiv_pos_site_id
_symmetry_equiv_pos_as_xyz
1 x,y,z
_cell_length_a                   7.1622
_cell_length_b                   10.2212
_cell_length_c                   15.2553
_cell_angle_alpha                90.0
_cell_angle_beta                 90.0
_cell_angle_gamma                90.0
loop_
_atom_site_label
_atom_site_type_symbol
_atom_site_fract_x
_atom_site_fract_y
_atom_site_fract_z
     1  O          0.36526000       0.51764000       0.81692000
     2  O          0.13474000       0.48236000       0.31692000
     3  O          0.86526000       0.98236000       0.18308000
     4  O          0.63474000       0.01764000       0.68308000
     5  O          0.36886000       0.96884000       0.25922000
     6  O          0.13114000       0.03116000       0.75922000
     7  O          0.86886000       0.53116000       0.74078000
     8  O          0.63114000       0.46884000       0.24078000
     9  N          0.36756000       0.57774000       0.74133000
    10  N          0.13244000       0.42226000       0.24133000
    11  N          0.86756000       0.92226000       0.25867000
    12  N          0.63244000       0.07774000       0.75867000
    13  N          0.37756000       0.90474000       0.33403000
    14  N          0.12244000       0.09526000       0.83403000
    15  N          0.87756000       0.59526000       0.66597000
    16  N          0.62244000       0.40474000       0.16597000
    17  C          0.40618000       0.51005000       0.66713000
    18  C          0.09382000       0.48995000       0.16713000
    19  C          0.90618000      -0.01005000       0.33287000
    20  C          0.59382000       0.01005000       0.83287000
    21  C          0.41278000       0.57195000       0.58744000
    22  C          0.08722000       0.42805000       0.08744000
    23  C          0.91278000       0.92805000       0.41256000
    24  C          0.58722000       0.07195000       0.91256000
    25  C          0.37667000       0.70595000       0.57933000
    26  C          0.12333000       0.29405000       0.07933000
    27  C          0.87667000       0.79405000       0.42067000
    28  C          0.62333000       0.20595000       0.92067000
    29  C          0.33397000       0.77215000       0.65713000
    30  C          0.16603000       0.22785000       0.15713000
    31  C          0.83397000       0.72785000       0.34287000
    32  C          0.66603000       0.27215000       0.84287000
    33  C          0.33168000       0.70835000       0.73593000
    34  C          0.16832000       0.29165000       0.23593000
    35  C          0.83168000       0.79165000       0.26407000
    36  C          0.66832000       0.20835000       0.76407000
    37  C          0.41548000       0.97005000       0.40954000
    38  C          0.08452000       0.02995000       0.90954000
    39  C          0.91548000       0.52995000       0.59046000
    40  C          0.58452000       0.47005000       0.09046000
    41  C          0.41957000       0.90745000       0.48803000
    42  C          0.08043000       0.09255000       0.98803000
    43  C          0.91957000       0.59255000       0.51197000
    44  C          0.58043000       0.40745000       0.01197000
    45  C          0.38087000       0.77355000       0.49413000
    46  C          0.11913000       0.22645000      -0.00587000
    47  C          0.88087000       0.72645000       0.50587000
    48  C          0.61913000       0.27355000       0.00587000
    49  C          0.34557000       0.70875000       0.41533000
    50  C          0.15443000       0.29125000       0.91533000
    51  C          0.84557000       0.79125000       0.58467000
    52  C          0.65443000       0.20875000       0.08467000
    53  C          0.34438000       0.77345000       0.33763000
    54  C          0.15562000       0.22655000       0.83763000
    55  C          0.84438000       0.72655000       0.66237000
    56  C          0.65562000       0.27345000       0.16237000
    57  H          0.43158000       0.41795000       0.67053000
    58  H          0.06842000       0.58205000       0.17053000
    59  H          0.93158000       0.08205000       0.32947000
    60  H          0.56842000       0.91795000       0.82947000
    61  H          0.43998000       0.52155000       0.53594000
    62  H          0.06002000       0.47845000       0.03594000
    63  H          0.93998000       0.97845000       0.46406000
    64  H          0.56002000       0.02155000       0.96406000
    65  H          0.30657000       0.86405000       0.65523000
    66  H          0.19343000       0.13595000       0.15523000
    67  H          0.80657000       0.63595000       0.34477000
    68  H          0.69343000       0.36405000       0.84477000
    69  H          0.30568000       0.75635000       0.78863000
    70  H          0.19432000       0.24365000       0.28863000
    71  H          0.80568000       0.74365000       0.21137000
    72  H          0.69432000       0.25635000       0.71137000
    73  H          0.43808000       0.06255000       0.40734000
    74  H          0.06192000       0.93745000       0.90734000
    75  H          0.93808000       0.43745000       0.59266000
    76  H          0.56192000       0.56255000       0.09266000
    77  H          0.45017000       0.95535000       0.54023000
    78  H          0.04983000       0.04465000       0.04023000
    79  H          0.95017000       0.54465000       0.45977000
    80  H          0.54983000       0.45535000       0.95977000
    81  H          0.32117000       0.61635000       0.41603000
    82  H          0.17883000       0.38365000       0.91603000
    83  H          0.82117000       0.88365000       0.58397000
    84  H          0.67883000       0.11635000       0.08397000
    85  H          0.32028000       0.72635000       0.28433000
    86  H          0.17972000       0.27365000       0.78433000
    87  H          0.82028000       0.77365000       0.71567000
    88  H          0.67972000       0.22635000       0.21567000
    89  O          0.35456000       0.73885000       0.99057000
    90  O          0.14544000       0.26115000       0.49057000
    91  O          0.85456000       0.76115000       0.00943000
    92  O          0.64544000       0.23885000       0.50943000
    93  C          0.35467000       0.79955000       0.06083000
    94  C          0.14533000       0.20045000       0.56083000
    95  C          0.85467000       0.70045000       0.93917000
    96  C          0.64533000       0.29955000       0.43917000
    97  N          0.51346000       0.84514000       0.09653000
    98  N         -0.01346000       0.15486000       0.59653000
    99  N          0.01346000       0.65486000       0.90347000
   100  N          0.48654000       0.34514000       0.40347000
   101  N          0.19456000       0.81934000       0.10553000
   102  N          0.30544000       0.18066000       0.60553000
   103  N          0.69456000       0.68066000       0.89447000
   104  N          0.80544000       0.31934000       0.39447000
   105  H          0.50866000       0.88674000       0.14853000
   106  H         -0.00866000       0.11326000       0.64853000
   107  H          0.00866000       0.61326000       0.85147000
   108  H          0.49134000       0.38674000       0.35147000
   109  H          0.62346000       0.83534000       0.06883000
   110  H          0.87654000       0.16466000       0.56883000
   111  H          0.12346000       0.66466000       0.93117000
   112  H          0.37654000       0.33534000       0.43117000
   113  H          0.19776000       0.86164000       0.15723000
   114  H          0.30224000       0.13836000       0.65723000
   115  H          0.69776000       0.63836000       0.84277000
   116  H          0.80224000       0.36164000       0.34277000
   117  H          0.08536000       0.78954000       0.08433000
   118  H          0.41464000       0.21046000       0.58433000
   119  H          0.58536000       0.71046000       0.91567000
   120  H          0.91464000       0.28954000       0.41567000
