data_BAHTAH
_symmetry_space_group_name_H-M    'P1'
_symmetry_Int_Tables_number       1
loop_
_symmetry_equiv_pos_site_id
_symmetry_equiv_pos_as_xyz
1 x,y,z
_cell_length_a                   10.94894
_cell_length_b                   11.83174
_cell_length_c                   14.11895
_cell_angle_alpha                69.7963
_cell_angle_beta                 76.1593
_cell_angle_gamma                72.3293
loop_
_atom_site_label
_atom_site_type_symbol
_atom_site_fract_x
_atom_site_fract_y
_atom_site_fract_z
     1  P          0.19953500       0.34569400       0.49787400
     2  F          0.07257160       0.45402160       0.50333140
     3  F          0.17024150       0.33861150       0.39437110
     4  F          0.11701180       0.24599170       0.56251140
     5  F          0.32629150       0.23499150       0.49478130
     6  F          0.22810130       0.35138120       0.60181100
     7  F          0.28254180       0.44399160       0.43480120
     8  P          0.50481500       0.58618500       0.81415600
     9  F          0.35190140       0.64552140       0.81913880
    10  F          0.52432140       0.64306140       0.69270900
    11  F          0.48584150       0.46213130       0.80373880
    12  F          0.65861130       0.52540120       0.80955900
    13  F          0.48681160       0.52936150       0.93571900
    14  F          0.52560160       0.71008130       0.82353870
    15  O          0.66644140       0.00958120       0.39793100
    16  O          0.79683140       0.85764870       0.56371110
    17  O          0.05494150       0.73386870       0.59927120
    18  O          0.26420140       0.84053860       0.48329110
    19  O          0.37107150       0.98963860       0.29514110
    20  O          0.67407140       0.12680120       0.04654100
    21  O          0.79061140       0.08707140       0.85859900
    22  O          0.04150140      -0.00491130       0.76185890
    23  O          0.25739150       0.04424140       0.80477890
    24  O          0.35388150       0.09501130       0.94872880
    25  O          0.55709140       0.50047120       0.27629110
    26  O          0.09696140       0.48331120       0.07433110
    27  N          0.86494180       0.53298160       0.29120140
    28  N          0.89002000       0.62138160       0.96861860
    29  C          0.64283180       0.10726170       0.31210140
    30  C          0.67059180       0.07500170       0.22170150
    31  H          0.70570000       0.99080000       0.22250000
    32  C          0.64643170       0.16704170       0.13054140
    33  C          0.59659180       0.29071170       0.12887150
    34  H          0.58200000       0.35380000       0.06630000
    35  C          0.56836180       0.32087170       0.21988150
    36  C          0.59133180       0.23035170       0.31224150
    37  H          0.57230000       0.25200000       0.37390000
    38  C          0.34212190       0.08482000       0.20956170
    39  C          0.36082000       0.05033190       0.12138170
    40  H          0.39380000       0.96560000       0.12340000
    41  C          0.33112000       0.13992000       0.03055170
    42  C          0.28342000       0.26452000       0.02613180
    43  H          0.26270000       0.32570000       0.96400000
    44  C          0.26669190       0.29782000       0.11482190
    45  C          0.29562000       0.20992000       0.20634180
    46  H          0.28410000       0.23410000       0.26600000
    47  C          0.63842000       0.03816190       0.49296150
    48  H          0.54670000       0.08410000       0.50430000
    49  H          0.69440000       0.09050000       0.49190000
    50  C          0.66352000       0.91798000       0.57650150
    51  H          0.63790000       0.93420000       0.64370000
    52  H          0.61110000       0.86400000       0.57450000
    53  C          0.82662000       0.74768000       0.64602160
    54  H          0.76000000       0.70020000       0.66230000
    55  H          0.82700000       0.76980000       0.70750000
    56  C          0.95732000       0.67004810       0.61620180
    57  H          0.97570000       0.59070000       0.67110000
    58  H          0.95740000       0.65090000       0.55320000
    59  C          0.17792000       0.66128000       0.56678170
    60  H          0.17820000       0.65260000       0.49940000
    61  H          0.19430000       0.57720000       0.61620000
    62  C          0.28202000       0.72268000       0.55927170
    63  H          0.27960000       0.73390000       0.62610000
    64  H          0.36780000       0.66950000       0.54150000
    65  C          0.36222000       0.90028000       0.47367170
    66  H          0.44840000       0.84590000       0.45850000
    67  H          0.35830000       0.91680000       0.53860000
    68  C          0.34362000       0.01952000       0.38959170
    69  H          0.25330000       0.06920000       0.39930000
    70  H          0.40290000       0.06840000       0.38910000
    71  C          0.64135190       0.21882180       0.95300850
    72  H          0.69830000       0.27720000       0.92950000
    73  H          0.55030000       0.26660000       0.96330000
    74  C          0.65932000       0.15270190       0.87507850
    75  H          0.60270000       0.09400000       0.89940000
    76  H          0.63440000       0.21370000       0.81010000
    77  C          0.81192000       0.02702000       0.78245850
    78  H          0.81260000       0.08880000       0.71400000
    79  H          0.74140000       0.98550000       0.79370000
    80  C          0.94022000       0.93293810       0.78863850
    81  H          0.94180000       0.87560000       0.85880000
    82  H          0.95250000       0.88360000       0.74150000
    83  C          0.16392000       0.90778000       0.77164830
    84  H          0.17720000       0.85150000       0.73000000
    85  H          0.16630000       0.85710000       0.84380000
    86  C          0.26952000       0.97618000       0.73617830
    87  H          0.35540000       0.91670000       0.73450000
    88  H          0.26180000       0.03350000       0.66640000
    89  C          0.35672000       0.10842000       0.77855840
    90  H          0.35660000       0.16420000       0.70780000
    91  H          0.44240000       0.04850000       0.78310000
    92  C          0.33162000       0.18212000       0.85149830
    93  H          0.39080000       0.23830000       0.82920000
    94  H          0.24110000       0.23270000       0.85510000
    95  C          0.50392000       0.45458190       0.21821170
    96  H          0.51130000       0.50790000       0.14650000
    97  H          0.41050000       0.46160000       0.24480000
    98  C          0.69042000       0.49492000       0.24159170
    99  H          0.70500000       0.52770000       0.16620000
   100  H          0.74060000       0.40740000       0.26100000
   101  C          0.73672000       0.56910180       0.28671150
   102  C          0.65552000       0.67109190       0.31631160
   103  H          0.56510000       0.69290000       0.31370000
   104  C          0.70882000       0.73982000       0.34948170
   105  H          0.65560000       0.81000000       0.36970000
   106  C          0.84013000       0.70532000       0.35290170
   107  H          0.87930000       0.75180000       0.37460000
   108  C          0.91352000       0.60122000       0.32391170
   109  H          0.00370000       0.57690000       0.32750000
   110  C          0.21982000       0.43342000       0.11002000
   111  H          0.21110000       0.44240000       0.17860000
   112  H          0.28330000       0.47950000       0.06320000
   113  C          0.06022000       0.61380180       0.05587180
   114  H          0.12170000       0.65220000      -0.00110000
   115  H          0.06470000       0.63360000       0.11740000
   116  C          0.92482000       0.66748180       0.02956150
   117  C          0.84442000       0.76513190       0.06501160
   118  H          0.87240000       0.79480000       0.10870000
   119  C          0.72262000       0.81852000       0.03571170
   120  H          0.66660000       0.88660000       0.05760000
   121  C          0.68432000       0.77102000       0.97393830
   122  H          0.60100000       0.80470000       0.95320000
   123  C          0.77113000       0.67252000       0.94312830
   124  H          0.74420000       0.63930000       0.90130000
   125  N          0.96874160       0.25602150       0.89006880
   126  N          0.98573150       0.08713150       0.41539120
   127  C          0.93782000       0.34421180       0.93756850
   128  H          0.91490000       0.42920000       0.89920000
   129  C          0.93882000       0.31343180       0.04042150
   130  H          0.91740000       0.37680000       0.07270000
   131  C          0.97153170       0.18856170       0.09763140
   132  C          0.00168190       0.09969170       0.04660150
   133  H          0.02370000       0.01400000       0.08320000
   134  C         -0.00034810       0.13559180       0.94284850
   135  H          0.02040000       0.07430000       0.90860000
   136  C          0.97092000       0.29302000       0.77845850
   137  H          0.03520000       0.34210000       0.74370000
   138  H          0.88500000       0.34280000       0.76180000
   139  H         -0.00610000       0.21850000       0.75600000
   140  C          0.98058180       0.20562170       0.35791140
   141  H          0.97900000       0.26580000       0.38890000
   142  C          0.97758180       0.24021170       0.25456140
   143  H          0.97630000       0.32350000       0.21430000
   144  C          0.97637170       0.15294170       0.20883140
   145  C          0.97994190       0.03126170       0.27111150
   146  H          0.97840000       0.96980000       0.24270000
   147  C          0.98571190       0.00048170       0.37349150
   148  H          0.98970000       0.91730000       0.41510000
   149  C          0.99242000       0.04977190       0.52602140
   150  H          0.91000000       0.03200000       0.56530000
   151  H          0.00870000       0.11730000       0.54260000
   152  H          0.06290000       0.97530000       0.54330000
   153  O          0.10790160       0.81064860       0.15837140
   154  C          0.32463000       0.77318000       0.07512000
   155  H          0.32450000       0.70590000       0.04970000
   156  H          0.40930000       0.75850000       0.09470000
   157  H          0.30730000       0.85250000       0.02140000
   158  C          0.22152000       0.77732830       0.16605170
   159  C          0.26313000       0.73928000       0.26842000
   160  H          0.18990000       0.72190000       0.32210000
   161  H          0.29210000       0.80660000       0.27490000
   162  H          0.33450000       0.66460000       0.27530000
   163  O          0.74606190       0.26460180       0.52392190
   164  C          0.53632000       0.39043000       0.55702000
   165  H          0.51140000       0.45320000       0.49370000
   166  H          0.49740000       0.42420000       0.61470000
   167  H          0.50540000       0.31680000       0.56720000
   168  C          0.68072000       0.35514190       0.54992160
   169  C          0.74253000       0.43672000       0.57233190
   170  H          0.71200000       0.43820000       0.64310000
   171  H          0.71960000       0.52100000       0.52610000
   172  H          0.83690000       0.40480000       0.56250000
   173  O          0.13143000       0.50773000       0.83158810
   174  H          0.18940000       0.56240000       0.80760000
   175  H          0.06730000       0.56040000       0.86570000
