data_BALTUH
_symmetry_space_group_name_H-M    'P1'
_symmetry_Int_Tables_number       1
loop_
_symmetry_equiv_pos_site_id
_symmetry_equiv_pos_as_xyz
1 x,y,z
_cell_length_a                   12.83864
_cell_length_b                   13.33025
_cell_length_c                   13.47395
_cell_angle_alpha                66.8902
_cell_angle_beta                 64.8772
_cell_angle_gamma                73.0622
loop_
_atom_site_label
_atom_site_type_symbol
_atom_site_fract_x
_atom_site_fract_y
_atom_site_fract_z
     1  Cl         0.77003700       0.56151700       0.31947700
     2  Cl         0.22996300       0.43848300       0.68052300
     3  C          0.77163000       0.61203000       0.17713000
     4  C          0.22837000       0.38797000       0.82287000
     5  Cl         0.69239900       0.74511700       0.15052900
     6  Cl         0.30760100       0.25488300       0.84947100
     7  Cl         0.70813150       0.52535100       0.15755100
     8  Cl         0.29186850       0.47464900       0.84244900
     9  Cl         0.91544900       0.61582120       0.08172100
    10  Cl         0.08455100       0.38417880       0.91827900
    11  H          0.10830000       0.18130000       0.37130000
    12  H          0.89170000       0.81870000       0.62870000
    13  H          0.35920000       0.18420000       0.25920000
    14  H          0.64080000       0.81580000       0.74080000
    15  H          0.21030000       0.29420000       0.11430000
    16  H          0.78970000       0.70580000       0.88570000
    17  H          0.99170000       0.40130000       0.25730000
    18  H          0.00830000       0.59870000       0.74270000
    19  N          0.32826190       0.01255190       0.79442000
    20  N          0.67173810       0.98744810       0.20558000
    21  H          0.18130000       0.53530000       0.07430000
    22  H          0.81870000       0.46470000       0.92570000
    23  N          0.75544190       0.23972000       0.36562000
    24  N          0.24455810       0.76028000       0.63438000
    25  H          0.40630000       0.39130000       0.08130000
    26  H          0.59370000       0.60870000       0.91870000
    27  C          0.25892000       0.94728000       0.89712000
    28  C          0.74108000       0.05272000       0.10288000
    29  H          0.31820000       0.55920000       0.19920000
    30  H          0.68180000       0.44080000       0.80080000
    31  C          0.24552000       0.20662000       0.49802000
    32  C          0.75448000       0.79338000       0.50198000
    33  H          0.05630000       0.56820000       0.30720000
    34  H          0.94370000       0.43180000       0.69280000
    35  C          0.45792000       0.35302000       0.39192000
    36  C          0.54208000       0.64698000       0.60808000
    37  H          0.39543800       0.38838200       0.44001200
    38  H          0.60456200       0.61161800       0.55998800
    39  H          0.21620000       0.44420000       0.43920000
    40  H          0.78380000       0.55580000       0.56080000
    41  C          0.56522000       0.31892000       0.40732000
    42  C          0.43478000       0.68108000       0.59268000
    43  C          0.32342000       0.89238000       0.97122000
    44  C          0.67658000       0.10762000       0.02878000
    45  C          0.43642000       0.00132000       0.80192000
    46  C          0.56358000      -0.00132000       0.19808000
    47  C          0.65862000       0.26622000       0.33362000
    48  C          0.34138000       0.73378000       0.66638000
    49  C          0.60702000       0.32492000       0.48922000
    50  C          0.39298000       0.67508000       0.51078000
    51  C          0.72462000       0.27462000       0.46002000
    52  C          0.27538000       0.72538000       0.53998000
    53  C          0.44562000       0.33332000       0.30362000
    54  C          0.55438000       0.66668000       0.69638000
    55  C          0.18032000       0.22702000       0.60312000
    56  C          0.81968000       0.77298000       0.39688000
    57  H          0.11929100       0.28551300       0.60696200
    58  H          0.88070900       0.71448700       0.39303800
    59  C          0.43672000       0.92728000       0.90992000
    60  C          0.56328000       0.07272000       0.09008000
    61  C          0.29692000       0.07602000       0.69582000
    62  C          0.70308000       0.92398000       0.30418000
    63  C          0.64902000       0.24872000       0.24282000
    64  C          0.35098000       0.75128000       0.75718000
    65  H          0.71220300       0.21572900       0.19280800
    66  H          0.28779700       0.78427100       0.80719200
    67  C          0.22222000       0.28572000       0.39122000
    68  C          0.77778000       0.71428000       0.60878000
    69  C          0.85932000       0.16742000       0.32493000
    70  C          0.14068000       0.83258000       0.67507000
    71  C          0.20502000       0.16162000       0.70122000
    72  C          0.79498000       0.83838000       0.29878000
    73  H          0.15972300       0.17514000       0.77114700
    74  H          0.84027700       0.82486000       0.22885300
    75  C          0.79372000       0.26832000       0.51892000
    76  C          0.20628000       0.73168000       0.48108000
    77  H          0.87109200       0.23525400       0.49880900
    78  H          0.12890800       0.76474600       0.50119100
    79  C          0.54192000       0.28202000       0.22982000
    80  C          0.45808000       0.71798000       0.77018000
    81  H          0.53305400       0.27025100       0.17038400
    82  H          0.46694600       0.72974900       0.82961600
    83  C          0.33432000       0.11722000       0.49402000
    84  C          0.66568000       0.88278000       0.50598000
    85  H          0.37693600       0.10128600       0.42490500
    86  H          0.62306400       0.89871400       0.57509500
    87  C          0.55872000       0.36942000       0.57953000
    88  C          0.44128000       0.63058000       0.42047000
    89  H          0.48169200       0.40356800       0.59935200
    90  H          0.51830800       0.59643200       0.40064800
    91  C          0.33062000       0.36062000       0.28712000
    92  C          0.66938000       0.63938000       0.71288000
    93  C          0.14612000       0.92978000       0.92793000
    94  C          0.85388000       0.07022000       0.07207000
    95  H          0.10395700       0.96685200       0.87890700
    96  H          0.89604300       0.03314800       0.12109300
    97  C          0.53503000       0.90378000       0.93953000
    98  C          0.46497000       0.09622000       0.06047000
    99  H          0.53679100       0.85387400       0.01029700
   100  H          0.46320900       0.14612600      -0.01029700
   101  C          0.53122000       0.05522000       0.72293000
   102  C          0.46878000       0.94478000       0.27707000
   103  H          0.53028500       0.10513400       0.65178200
   104  H          0.46971500       0.89486600       0.34821800
   105  C          0.35982000       0.05172000       0.59222000
   106  C          0.64018000       0.94828000       0.40778000
   107  H          0.41871000       0.99139800       0.58923700
   108  H          0.58129000       0.00860200       0.41076300
   109  C          0.62703000       0.03052000       0.75553000
   110  C          0.37297000       0.96948000       0.24447000
   111  H          0.69185100       0.06499600       0.70473000
   112  H          0.30814900       0.93500400       0.29527000
   113  C          0.74343000       0.31312000       0.60863000
   114  C          0.25657000       0.68688000       0.39137000
   115  H          0.78791900       0.31064100       0.64903500
   116  H          0.21208100       0.68935900       0.35096500
   117  C          0.27313000       0.81828000       0.07783000
   118  C          0.72687000       0.18172000       0.92217000
   119  H          0.31446400       0.78141800       0.12756800
   120  H          0.68553600       0.21858200       0.87243200
   121  C          0.93772000       0.20232000       0.21413000
   122  C          0.06228000       0.79768000       0.78587000
   123  H          0.92447600       0.27361300       0.16629100
   124  H          0.07552400       0.72638700       0.83370900
   125  H          0.01930000       0.35330000       0.48130000
   126  H          0.98070000       0.64670000       0.51870000
   127  C          0.62653000       0.36212000       0.63963000
   128  C          0.37347000       0.63788000       0.36037000
   129  H          0.59411300       0.39010500       0.70141300
   130  H          0.40588700       0.60989500       0.29858700
   131  C          0.62943000       0.95637000       0.86133000
   132  C          0.37057000       0.04363000       0.13867000
   133  H          0.69553700       0.94185600       0.87965100
   134  H          0.30446300       0.05814400       0.12034900
   135  C          0.09943000       0.85517000       0.03423000
   136  C          0.90057000       0.14483000       0.96577000
   137  H          0.02439000       0.84144500       0.05662200
   138  H          0.97561000       0.15855500       0.94337800
   139  C          0.05613000       0.02473000       0.24633000
   140  C          0.94387000       0.97527000       0.75367000
   141  H          0.12207000       0.97647000       0.21976100
   142  H          0.87793000       0.02353000       0.78023900
   143  C          0.87923000       0.06233000       0.39753000
   144  C          0.12077000       0.93767000       0.60247000
   145  H          0.82696800       0.03949200       0.47246900
   146  H          0.17303200       0.96050800       0.52753100
   147  C          0.03603000       0.13033000       0.17493000
   148  C          0.96397000       0.86967000       0.82507000
   149  H          0.08873700       0.15311900       0.10021100
   150  H          0.91126300       0.84688100       0.89978900
   151  C          0.16123000       0.79957000       0.10953000
   152  C          0.83877000       0.20043000       0.89047000
   153  H          0.12709200       0.74999300       0.18079700
   154  H          0.87290800       0.25000700       0.81920300
   155  C          0.97833000       0.99137000       0.35683000
   156  C          0.02167000       0.00863000       0.64317000
   157  H          0.99212200       0.92041900       0.40490900
   158  H          0.00787800       0.07958100       0.59509100
   159  B          0.20903000       0.42373000       0.37393000
   160  B          0.79097000       0.57627000       0.62607000
   161  B          0.32443000       0.38753000       0.15433000
   162  B          0.67557000       0.61247000       0.84567000
   163  B          0.29693000       0.25863000       0.26163000
   164  B          0.70307000       0.74137000       0.73837000
   165  B          0.26943000       0.49083000       0.22403000
   166  B          0.73057000       0.50917000       0.77597000
   167  B          0.08923000       0.36383000       0.39893000
   168  B          0.91077000       0.63617000       0.60107000
   169  B          0.18763000       0.47123000       0.15623000
   170  B          0.81237000       0.52877000       0.84377000
   171  B          0.14363000       0.26033000       0.32913000
   172  B          0.85637000       0.73967000       0.67087000
   173  B          0.20643000       0.32653000       0.17873000
   174  B          0.79357000       0.67347000       0.82127000
   175  B          0.07703000       0.39283000       0.26393000
   176  B          0.92297000       0.60717000       0.73607000
   177  B          0.11663000       0.49333000       0.29333000
   178  B          0.88337000       0.50667000       0.70667000
