data_BARYID
_symmetry_space_group_name_H-M    'P1'
_symmetry_Int_Tables_number       1
loop_
_symmetry_equiv_pos_site_id
_symmetry_equiv_pos_as_xyz
1 x,y,z
_cell_length_a                   7.1832
_cell_length_b                   17.2575
_cell_length_c                   18.7115
_cell_angle_alpha                90.0
_cell_angle_beta                 102.803
_cell_angle_gamma                90.0
loop_
_atom_site_label
_atom_site_type_symbol
_atom_site_fract_x
_atom_site_fract_y
_atom_site_fract_z
     1  I          0.56963200       0.23594290       0.44244100
     2  I          0.43036800       0.73594290       0.05755900
     3  I          0.43036800       0.76405710       0.55755900
     4  I          0.56963200       0.26405710       0.94244100
     5  C          0.72333000       0.24891000       0.35911000
     6  C          0.27667000       0.74891000       0.14089000
     7  C          0.27667000       0.75109000       0.64089000
     8  C          0.72333000       0.25109000       0.85911000
     9  C          0.91913000       0.25611000       0.37991000
    10  C          0.08087000       0.75611000       0.12009000
    11  C          0.08087000       0.74389000       0.62009000
    12  C          0.91913000       0.24389000       0.87991000
    13  C          0.01723000       0.26942000       0.32481000
    14  C         -0.01723000       0.76942000       0.17519000
    15  C         -0.01723000       0.73058000       0.67519000
    16  C          0.01723000       0.23058000       0.82481000
    17  C          0.92104000       0.27422000       0.25231000
    18  C          0.07896000       0.77422000       0.24769000
    19  C          0.07896000       0.72578000       0.74769000
    20  C          0.92104000       0.22578000       0.75231000
    21  C          0.72513000       0.26532000       0.23351000
    22  C          0.27487000       0.76532000       0.26649000
    23  C          0.27487000       0.73468000       0.76649000
    24  C          0.72513000       0.23468000       0.73351000
    25  C          0.62223000       0.25241000       0.28731000
    26  C          0.37777000       0.75241000       0.21269000
    27  C          0.37777000       0.74759000       0.71269000
    28  C          0.62223000       0.24759000       0.78731000
    29  C          0.43734000       0.13611000       0.40181000
    30  C          0.56266000       0.63611000       0.09819000
    31  C          0.56266000       0.86389000       0.59819000
    32  C          0.43734000       0.36389000       0.90181000
    33  C          0.32814000       0.08331000       0.39341000
    34  C          0.67186000       0.58331000       0.10659000
    35  C          0.67186000       0.91669000       0.60659000
    36  C          0.32814000       0.41669000       0.89341000
    37  C          0.19174000       0.01831000       0.38431000
    38  C          0.80826000       0.51831000       0.11569000
    39  C          0.80826000       0.98169000       0.61569000
    40  C          0.19174000       0.48169000       0.88431000
    41  C          0.26886000       0.95568000       0.43943000
    42  C          0.73114000       0.45568000       0.06057000
    43  C          0.73114000       0.04432000       0.56057000
    44  C          0.26886000       0.54432000       0.93943000
    45  C          0.00325000       0.04812000       0.39793000
    46  C         -0.00325000       0.54812000       0.10207000
    47  C         -0.00325000       0.95188000       0.60207000
    48  C          0.00325000       0.45188000       0.89793000
    49  C          0.15877000       0.98708000       0.30772000
    50  C          0.84123000       0.48708000       0.19228000
    51  C          0.84123000       0.01292000       0.69228000
    52  C          0.15877000       0.51292000       0.80772000
    53  H         -0.01500000       0.25250000       0.42980000
    54  H          0.01500000       0.75250000       0.07020000
    55  H          0.01500000       0.74750000       0.57020000
    56  H         -0.01500000       0.24750000       0.92980000
    57  H          0.15270000       0.27490000       0.33720000
    58  H          0.84730000       0.77490000       0.16280000
    59  H          0.84730000       0.72510000       0.66280000
    60  H          0.15270000       0.22510000       0.83720000
    61  H         -0.00970000       0.28410000       0.21530000
    62  H          0.00970000       0.78410000       0.28470000
    63  H          0.00970000       0.71590000       0.78470000
    64  H         -0.00970000       0.21590000       0.71530000
    65  H          0.65960000       0.26720000       0.18330000
    66  H          0.34040000       0.76720000       0.31670000
    67  H          0.34040000       0.73280000       0.81670000
    68  H          0.65960000       0.23280000       0.68330000
    69  H          0.48650000       0.24620000       0.27490000
    70  H          0.51350000       0.74620000       0.22510000
    71  H          0.51350000       0.75380000       0.72510000
    72  H          0.48650000       0.25380000       0.77490000
    73  H          0.36310000       0.92690000       0.42350000
    74  H          0.63690000       0.42690000       0.07650000
    75  H          0.63690000       0.07310000       0.57650000
    76  H          0.36310000       0.57310000       0.92350000
    77  H          0.16630000       0.92240000       0.44460000
    78  H          0.83370000       0.42240000       0.05540000
    79  H          0.83370000       0.07760000       0.55540000
    80  H          0.16630000       0.57760000       0.94460000
    81  H          0.32130000       0.97910000       0.48560000
    82  H          0.67870000       0.47910000       0.01440000
    83  H          0.67870000       0.02090000       0.51440000
    84  H          0.32130000       0.52090000       0.98560000
    85  H          0.91730000       0.00630000       0.39770000
    86  H          0.08270000       0.50630000       0.10230000
    87  H          0.08270000      -0.00630000       0.60230000
    88  H          0.91730000       0.49370000       0.89770000
    89  H          0.02330000       0.07470000       0.44310000
    90  H         -0.02330000       0.57470000       0.05690000
    91  H         -0.02330000       0.92530000       0.55690000
    92  H          0.02330000       0.42530000       0.94310000
    93  H          0.94690000       0.08350000       0.35920000
    94  H          0.05310000       0.58350000       0.14080000
    95  H          0.05310000       0.91650000       0.64080000
    96  H          0.94690000       0.41650000       0.85920000
    97  H          0.16790000       0.02760000       0.27450000
    98  H          0.83210000       0.52760000       0.22550000
    99  H          0.83210000       0.97240000       0.72550000
   100  H          0.16790000       0.47240000       0.77450000
   101  H          0.03690000       0.96360000       0.29470000
   102  H          0.96310000       0.46360000       0.20530000
   103  H          0.96310000       0.03640000       0.70530000
   104  H          0.03690000       0.53640000       0.79470000
   105  H          0.25440000       0.94880000       0.30530000
   106  H          0.74560000       0.44880000       0.19470000
   107  H          0.74560000       0.05120000       0.69470000
   108  H          0.25440000       0.55120000       0.80530000
   109  F          0.40472000       0.20777900       0.56707900
   110  F          0.59528000       0.70777900       0.93292100
   111  F          0.59528000       0.79222100       0.43292100
   112  F          0.40472000       0.29222100       0.06707900
   113  F          0.08412000       0.18921100       0.54952900
   114  F          0.91588000       0.68921100       0.95047100
   115  F          0.91588000       0.81078900       0.45047100
   116  F          0.08412000       0.31078900       0.04952900
   117  F          0.29013000       0.11477900       0.63156100
   118  F          0.70987000       0.61477900       0.86843900
   119  F          0.70987000       0.88522100       0.36843900
   120  F          0.29013000       0.38522100       0.13156100
   121  F          0.25192000       0.24211000       0.65568800
   122  F          0.74808000       0.74211000       0.84431200
   123  F          0.74808000       0.75789000       0.34431200
   124  F          0.25192000       0.25789000       0.15568800
   125  B          0.25624000       0.18782000       0.60132000
   126  B          0.74376000       0.68782000       0.89868000
   127  B          0.74376000       0.81218000       0.39868000
   128  B          0.25624000       0.31218000       0.10132000
   129  N          0.74563000       0.36141000       0.50751000
   130  N          0.25437000       0.86141000      -0.00751000
   131  N          0.25437000       0.63859000       0.49249000
   132  N          0.74563000       0.13859000       0.00751000
   133  N          0.54013000       0.40941000       0.37151000
   134  N          0.45987000       0.90941000       0.12849000
   135  N          0.45987000       0.59059000       0.62849000
   136  N          0.54013000       0.09059000       0.87151000
   137  C          0.84374000       0.34001000       0.57341000
   138  C          0.15626000       0.84001000       0.92659000
   139  C          0.15626000       0.65999000       0.42659000
   140  C          0.84374000       0.15999000       0.07341000
   141  C          0.93174000       0.39162000       0.62781000
   142  C          0.06826000       0.89162000       0.87219000
   143  C          0.06826000       0.60838000       0.37219000
   144  C          0.93174000       0.10838000       0.12781000
   145  C          0.91574000       0.46942000       0.61281000
   146  C          0.08426000       0.96942000       0.88719000
   147  C          0.08426000       0.53058000       0.38719000
   148  C          0.91574000       0.03058000       0.11281000
   149  C          0.81533000       0.49471000       0.54411000
   150  C          0.18467000      -0.00529000       0.95589000
   151  C          0.18467000       0.50529000       0.45589000
   152  C          0.81533000       0.00529000       0.04411000
   153  C          0.79944000       0.57531000       0.52542000
   154  C          0.20056000       0.07531000       0.97458000
   155  C          0.20056000       0.42469000       0.47458000
   156  C          0.79944000       0.92469000       0.02542000
   157  C          0.70674000       0.59911000       0.45872000
   158  C          0.29326000       0.09911000       0.04128000
   159  C          0.29326000       0.40089000       0.54128000
   160  C          0.70674000       0.90089000       0.95872000
   161  C          0.61864000       0.54421000       0.40372000
   162  C          0.38136000       0.04421000       0.09628000
   163  C          0.38136000       0.45579000       0.59628000
   164  C          0.61864000       0.95579000       0.90372000
   165  C          0.52354000       0.56692000       0.33292000
   166  C          0.47646000       0.06692000       0.16708000
   167  C          0.47646000       0.43308000       0.66708000
   168  C          0.52354000       0.93308000       0.83292000
   169  C          0.44024000       0.51182000       0.28372000
   170  C          0.55976000       0.01182000       0.21628000
   171  C          0.55976000       0.48818000       0.71628000
   172  C          0.44024000       0.98818000       0.78372000
   173  C          0.45024000       0.43402000       0.30592000
   174  C          0.54976000       0.93402000       0.19408000
   175  C          0.54976000       0.56598000       0.69408000
   176  C          0.45024000       0.06598000       0.80592000
   177  C          0.62603000       0.46421000       0.42021000
   178  C          0.37397000       0.96421000       0.07979000
   179  C          0.37397000       0.53579000       0.57979000
   180  C          0.62603000       0.03579000       0.92021000
   181  C          0.73043000       0.43871000       0.49201000
   182  C          0.26957000       0.93871000       0.00799000
   183  C          0.26957000       0.56129000       0.50799000
   184  C          0.73043000       0.06129000       0.99201000
   185  H          0.85550000       0.28590000       0.58400000
   186  H          0.14450000       0.78590000       0.91600000
   187  H          0.14450000       0.71410000       0.41600000
   188  H          0.85550000       0.21410000       0.08400000
   189  H          0.00040000       0.37360000       0.67430000
   190  H         -0.00040000       0.87360000       0.82570000
   191  H         -0.00040000       0.62640000       0.32570000
   192  H          0.00040000       0.12640000       0.17430000
   193  H          0.97260000       0.50620000       0.64920000
   194  H          0.02740000       0.00620000       0.85080000
   195  H          0.02740000       0.49380000       0.35080000
   196  H          0.97260000      -0.00620000       0.14920000
   197  H          0.85550000       0.61260000       0.56120000
   198  H          0.14450000       0.11260000       0.93880000
   199  H          0.14450000       0.38740000       0.43880000
   200  H          0.85550000       0.88740000       0.06120000
   201  H          0.69890000       0.65280000       0.44760000
   202  H          0.30110000       0.15280000       0.05240000
   203  H          0.30110000       0.34720000       0.55240000
   204  H          0.69890000       0.84720000       0.94760000
   205  H          0.51630000       0.62030000       0.31960000
   206  H          0.48370000       0.12030000       0.18040000
   207  H          0.48370000       0.37970000       0.68040000
   208  H          0.51630000       0.87970000       0.81960000
   209  H          0.37700000       0.52590000       0.23500000
   210  H          0.62300000       0.02590000       0.26500000
   211  H          0.62300000       0.47410000       0.76500000
   212  H          0.37700000       0.97410000       0.73500000
   213  H          0.38820000       0.39610000       0.27140000
   214  H          0.61180000       0.89610000       0.22860000
   215  H          0.61180000       0.60390000       0.72860000
   216  H          0.38820000       0.10390000       0.77140000
