data_BASXIE
_symmetry_space_group_name_H-M    'P1'
_symmetry_Int_Tables_number       1
loop_
_symmetry_equiv_pos_site_id
_symmetry_equiv_pos_as_xyz
1 x,y,z
_cell_length_a                   8.43484
_cell_length_b                   17.28705
_cell_length_c                   10.95285
_cell_angle_alpha                90.0
_cell_angle_beta                 94.5482
_cell_angle_gamma                90.0
loop_
_atom_site_label
_atom_site_type_symbol
_atom_site_fract_x
_atom_site_fract_y
_atom_site_fract_z
     1  N          0.27798170       0.59969800       0.56960120
     2  N          0.72201830       0.09969800       0.93039880
     3  N          0.72201830       0.40030200       0.43039880
     4  N          0.27798170       0.90030200       0.06960120
     5  N          0.24337170       0.44232800       0.59251130
     6  N          0.75662830       0.94232800       0.90748870
     7  N          0.75662830       0.55767200       0.40748870
     8  N          0.24337170       0.05767200       0.09251130
     9  H          0.23230000       0.39361600       0.60220000
    10  H          0.76770000       0.89361600       0.89780000
    11  H          0.76770000       0.60638400       0.39780000
    12  H          0.23230000       0.10638400       0.10220000
    13  N          0.48070170       0.41820800       0.51296130
    14  N          0.51929830       0.91820800       0.98703870
    15  N          0.51929830       0.58179200       0.48703870
    16  N          0.48070170       0.08179200       0.01296130
    17  C          0.14292000       0.57059900       0.62105150
    18  C          0.85708000       0.07059900       0.87894850
    19  C          0.85708000       0.42940100       0.37894850
    20  C          0.14292000       0.92940100       0.12105150
    21  C          0.02512000       0.61927100       0.66158170
    22  C          0.97488000       0.11927100       0.83841830
    23  C          0.97488000       0.38072900       0.33841830
    24  C          0.02512000       0.88072900       0.16158170
    25  H          0.03420000       0.67131300       0.65661800
    26  H          0.96580000       0.17131300       0.84338200
    27  H          0.96580000       0.32868700       0.34338200
    28  H          0.03420000       0.82868700       0.15661800
    29  C          0.89478000       0.58709110       0.71151180
    30  C          0.10522000       0.08709110       0.78848820
    31  C          0.10522000       0.41290890       0.28848820
    32  C          0.89478000       0.91290890       0.21151180
    33  H          0.81570000       0.62131200       0.73720000
    34  H          0.18430000       0.12131200       0.76280000
    35  H          0.18430000       0.37868800       0.26280000
    36  H          0.81570000       0.87868800       0.23720000
    37  C          0.87948000       0.50712110       0.72294180
    38  C          0.12052000       0.00712110       0.77705820
    39  C          0.12052000       0.49287890       0.27705820
    40  C          0.87948000      -0.00712110       0.22294180
    41  H          0.78970000       0.48511200       0.75741900
    42  H          0.21030000       0.98511200       0.74258100
    43  H          0.21030000       0.51488800       0.24258100
    44  H          0.78970000       0.01488800       0.25741900
    45  C         -0.00502000       0.45870100       0.68417170
    46  C          0.00502000       0.95870100       0.81582830
    47  C          0.00502000       0.54129900       0.31582830
    48  C         -0.00502000       0.04129900       0.18417170
    49  H         -0.01130000       0.40401300       0.69301900
    50  H          0.01130000       0.90401300       0.80698100
    51  H          0.01130000       0.59598700       0.30698100
    52  H         -0.01130000       0.09598700       0.19301900
    53  C          0.12662000       0.49006100       0.63264150
    54  C          0.87338000       0.99006100       0.86735850
    55  C          0.87338000       0.50993900       0.36735850
    56  C          0.12662000       0.00993900       0.13264150
    57  C          0.37262000       0.46881900       0.54603140
    58  C          0.62738000       0.96881900       0.95396860
    59  C          0.62738000       0.53118100       0.45396860
    60  C          0.37262000       0.03118100       0.04603140
    61  C          0.39222000       0.55221900       0.53311140
    62  C          0.60778000       0.05221900       0.96688860
    63  C          0.60778000       0.44778100       0.46688860
    64  C          0.39222000       0.94778100       0.03311140
    65  C          0.30322000       0.68317900       0.56717150
    66  C          0.69678000       0.18317900       0.93282850
    67  C          0.69678000       0.31682100       0.43282850
    68  C          0.30322000       0.81682100       0.06717150
    69  C          0.39103000       0.71712110       0.66347190
    70  C          0.60897000       0.21712110       0.83652810
    71  C          0.60897000       0.28287890       0.33652810
    72  C          0.39103000       0.78287890       0.16347190
    73  H          0.43430000       0.68501400       0.73220000
    74  H          0.56570000       0.18501400       0.76780000
    75  H          0.56570000       0.31498600       0.26780000
    76  H          0.43430000       0.81498600       0.23220000
    77  C          0.40763000       0.79738110       0.66452000
    78  C          0.59237000       0.29738110       0.83548000
    79  C          0.59237000       0.20261890       0.33548000
    80  C          0.40763000       0.70261890       0.16452000
    81  H          0.47130000       0.82371500       0.73520000
    82  H          0.52870000       0.32371500       0.76480000
    83  H          0.52870000       0.17628500       0.26480000
    84  H          0.47130000       0.67628500       0.23520000
    85  C          0.33693000       0.84082110       0.56992000
    86  C          0.66307000       0.34082110       0.93008000
    87  C          0.66307000       0.15917890       0.43008000
    88  C          0.33693000       0.65917890       0.06992000
    89  H          0.34930000       0.89401500       0.56820000
    90  H          0.65070000       0.39401500       0.93180000
    91  H          0.65070000       0.10598500       0.43180000
    92  H          0.34930000       0.60598500       0.06820000
    93  C          0.24963000       0.80590120       0.47432000
    94  C          0.75037000       0.30590120       0.02568000
    95  C          0.75037000       0.19409880       0.52568000
    96  C          0.24963000       0.69409880       0.97432000
    97  H          0.20130000       0.83511500       0.40220000
    98  H          0.79870000       0.33511500       0.09780000
    99  H          0.79870000       0.16488500       0.59780000
   100  H          0.20130000       0.66488500       0.90220000
   101  C          0.23173000       0.72599110       0.47152190
   102  C          0.76827000       0.22599110       0.02847810
   103  C          0.76827000       0.27400890       0.52847810
   104  C          0.23173000       0.77400890       0.97152190
   105  H          0.16830000       0.70021600       0.40830000
   106  H          0.83170000       0.20021600       0.09170000
   107  H          0.83170000       0.29978400       0.59170000
   108  H          0.16830000       0.79978400       0.90830000
   109  Cl         0.51458600       0.02978300       0.68731400
   110  Cl         0.48541400       0.52978300       0.81268600
   111  Cl         0.48541400       0.97021700       0.31268600
   112  Cl         0.51458600       0.47021700       0.18731400
   113  Cl         0.19448600       0.27269200       0.65849400
   114  Cl         0.80551400       0.77269200       0.84150600
   115  Cl         0.80551400       0.72730800       0.34150600
   116  Cl         0.19448600       0.22730800       0.15849400
   117  O          0.16072000       0.17615100       0.42409160
   118  O          0.83928000       0.67615100       0.07590840
   119  O          0.83928000       0.82384900       0.57590840
   120  O          0.16072000       0.32384900       0.92409160
   121  H          0.19750000       0.20020000       0.35540000
   122  H          0.80250000       0.70020000       0.14460000
   123  H          0.80250000       0.79980000       0.64460000
   124  H          0.19750000       0.29980000       0.85540000
   125  H          0.20240000       0.20920000       0.47740000
   126  H          0.79760000       0.70920000       0.02260000
   127  H          0.79760000       0.79080000       0.52260000
   128  H          0.20240000       0.29080000       0.97740000
   129  O          0.27620190       0.05098900       0.47560160
   130  O          0.72379810       0.55098900       0.02439840
   131  O          0.72379810       0.94901100       0.52439840
   132  O          0.27620190       0.44901100       0.97560160
   133  H          0.34140000       0.05341600       0.54130000
   134  H          0.65860000       0.55341600       0.95870000
   135  H          0.65860000       0.94658400       0.45870000
   136  H          0.34140000       0.44658400       0.04130000
   137  H          0.31840000       0.03531700       0.42130000
   138  H          0.68160000       0.53531700       0.07870000
   139  H          0.68160000       0.96468300       0.57870000
   140  H          0.31840000       0.46468300       0.92130000
