data_BASYOL
_symmetry_space_group_name_H-M    'P1'
_symmetry_Int_Tables_number       1
loop_
_symmetry_equiv_pos_site_id
_symmetry_equiv_pos_as_xyz
1 x,y,z
_cell_length_a                   8.59778
_cell_length_b                   4.97263
_cell_length_c                   17.393515
_cell_angle_alpha                90.0
_cell_angle_beta                 90.1621
_cell_angle_gamma                90.0
loop_
_atom_site_label
_atom_site_type_symbol
_atom_site_fract_x
_atom_site_fract_y
_atom_site_fract_z
     1  Br         0.81052800       0.70812000       0.61283300
     2  Br         0.18947200       0.20812000       0.38716700
     3  S          0.89854180       0.75704000       0.28953900
     4  S          0.10145820       0.25704000       0.71046100
     5  N          0.69386000       0.37281100       0.28373000
     6  N          0.30614000       0.87281100       0.71627000
     7  N          0.78566000       0.51001300       0.16373000
     8  N          0.21434000       0.01001300       0.83627000
     9  H          0.72770000       0.39510000       0.14020000
    10  H          0.27230000       0.89510000       0.85980000
    11  H          0.84560000       0.61460000       0.13780000
    12  H          0.15440000       0.11460000       0.86220000
    13  C          0.78257000       0.52611300       0.24073000
    14  C          0.21743000       0.02611300       0.75927000
    15  C          0.71347000       0.43751300       0.36084000
    16  C          0.28653000       0.93751300       0.63916000
    17  C          0.81836000       0.64041300       0.37663000
    18  C          0.18164000       0.14041300       0.62337000
    19  C          0.85086000       0.72920000       0.45073000
    20  C          0.14914000       0.22920000       0.54927000
    21  H          0.92020000       0.86880000       0.46020000
    22  H          0.07980000       0.36880000       0.53980000
    23  C          0.77267000       0.59591400       0.51054000
    24  C          0.22733000       0.09591400       0.48946000
    25  C          0.67058000       0.38911700       0.49634000
    26  C          0.32942000       0.88911700       0.50366000
    27  H          0.62300000       0.30340000       0.53750000
    28  H          0.37700000       0.80340000       0.46250000
    29  C          0.63678000       0.30521600       0.42234000
    30  C          0.36322000       0.80521600       0.57766000
    31  H          0.56620000       0.16690000       0.41320000
    32  H          0.43380000       0.66690000       0.58680000
    33  N          0.09286000       0.09731100       0.07273000
    34  N          0.90714000       0.59731100       0.92727000
    35  O          0.50895000      -0.02459000       0.24422000
    36  O          0.49105000       0.47541000       0.75578000
    37  H          0.56910000       0.09940000       0.25330000
    38  H          0.43090000       0.59940000       0.74670000
    39  O          0.57355000       0.06689000       0.12292000
    40  O          0.42645000       0.56689000       0.87708000
    41  O          0.10155000       0.02501000       0.00572000
    42  O          0.89845000       0.52501000      -0.00572000
    43  O          0.00446000      -0.00501000       0.11983000
    44  O         -0.00446000       0.49499000       0.88017000
    45  C          0.50007000       0.93781300       0.16973000
    46  C          0.49993000       0.43781300       0.83027000
    47  C          0.39205000       0.71801400       0.14593000
    48  C          0.60795000       0.21801400       0.85407000
    49  C          0.30397000       0.57511400       0.20053000
    50  C          0.69603000       0.07511400       0.79947000
    51  H          0.31250000       0.61600000       0.25250000
    52  H          0.68750000       0.11600000       0.74750000
    53  C          0.20397000       0.37291400       0.17613000
    54  C          0.79603000       0.87291400       0.82387000
    55  H          0.14440000       0.27770000       0.21150000
    56  H          0.85560000       0.77770000       0.78850000
    57  C          0.19446000       0.31601100       0.09933000
    58  C          0.80554000       0.81601100       0.90067000
    59  C          0.27957000       0.45511400       0.04443000
    60  C          0.72043000       0.95511400       0.95557000
    61  H          0.26950000       0.41400000      -0.00760000
    62  H          0.73050000       0.91400000       0.00760000
    63  C          0.37886000       0.65531300       0.06863000
    64  C          0.62114000       0.15531300       0.93137000
    65  H          0.43760000       0.74920000       0.03270000
    66  H          0.56240000       0.24920000       0.96730000
