data_BATYIH
_symmetry_space_group_name_H-M    'P1'
_symmetry_Int_Tables_number       1
loop_
_symmetry_equiv_pos_site_id
_symmetry_equiv_pos_as_xyz
1 x,y,z
_cell_length_a                   6.6315
_cell_length_b                   7.0326
_cell_length_c                   14.21612
_cell_angle_alpha                87.96717
_cell_angle_beta                 88.583
_cell_angle_gamma                80.20718
loop_
_atom_site_label
_atom_site_type_symbol
_atom_site_fract_x
_atom_site_fract_y
_atom_site_fract_z
     1  C          0.26950180       0.23170170       0.23632900
     2  C          0.73049820       0.76829830       0.76367100
     3  C          0.19022190       0.21745170       0.32802900
     4  C          0.80977810       0.78254830       0.67197100
     5  C          0.97898000       0.27531190       0.34036900
     6  C          0.02102000       0.72468810       0.65963100
     7  C          0.85952810       0.34181190       0.26370900
     8  C          0.14047190       0.65818810       0.73629100
     9  C          0.95253820       0.35406180       0.17500900
    10  C          0.04746180       0.64593820       0.82499100
    11  C          0.32922000       0.14700190       0.40875900
    12  C          0.67078000       0.85299810       0.59124100
    13  C          0.40142000       0.31242000       0.45763900
    14  C          0.59858000       0.68758000       0.54236100
    15  N          0.15482160       0.29868150       0.16176700
    16  N          0.84517840       0.70131850       0.83823300
    17  H          0.41420000       0.19420000       0.21981100
    18  H          0.58580000       0.80580000       0.78018900
    19  H          0.92180000       0.27120000       0.40331200
    20  H          0.07820000       0.72880000       0.59668800
    21  H          0.70970000       0.38230000       0.27101400
    22  H          0.29030000       0.61770000       0.72898600
    23  H          0.87480000       0.40020000       0.12101100
    24  H          0.12520000       0.59980000       0.87898900
    25  H          0.25730000       0.07420000       0.45641300
    26  H          0.74270000       0.92580000       0.54358700
    27  H          0.44630000       0.05830000       0.38311200
    28  H          0.55370000       0.94170000       0.61688800
    29  H          0.48930000       0.26530000       0.50841400
    30  H          0.51070000       0.73470000       0.49158600
    31  H          0.28630000       0.40130000       0.48461300
    32  H          0.71370000       0.59870000       0.51538700
    33  H          0.47530000       0.38630000       0.41261300
    34  H          0.52470000       0.61370000       0.58738700
    35  C          0.56470180       0.27960180       0.82746900
    36  C          0.43529820       0.72039820       0.17253100
    37  C          0.68389180       0.27143170       0.74498900
    38  C          0.31610820       0.72856830       0.25501100
    39  C          0.89479180       0.21779170       0.75283800
    40  C          0.10520820       0.78220830       0.24716200
    41  C         -0.00936820       0.17221180       0.83820900
    42  C          0.00936820       0.82778820       0.16179100
    43  C          0.86858180       0.18269180       0.91965900
    44  C          0.13141820       0.81730820       0.08034100
    45  C          0.65621170       0.23511160       0.91416800
    46  C          0.34378830       0.76488840       0.08583200
    47  C          0.53258180       0.23554170       0.00490800
    48  C          0.46741820       0.76445830      -0.00490800
    49  N          0.02244160       0.20765160       0.66561800
    50  N          0.97755840       0.79234840       0.33438200
    51  O          0.33936130       0.31896130      -0.00249400
    52  O          0.66063870       0.68103870       0.00249400
    53  O          0.60992130       0.16336150       0.07743600
    54  O          0.39007870       0.83663850       0.92256400
    55  O          0.93613160       0.23586160       0.58977700
    56  O          0.06386840       0.76413840       0.41022300
    57  O          0.20966140       0.17185160       0.67351700
    58  O          0.79033860       0.82814840       0.32648300
    59  H          0.27440000       0.31530000       0.06601800
    60  H          0.72560000       0.68470000       0.93398200
    61  H          0.41630000       0.31820000       0.82131200
    62  H          0.58370000       0.68180000       0.17868800
    63  H          0.62330000       0.30420000       0.68421300
    64  H          0.37670000       0.69580000       0.31578700
    65  H          0.13530000       0.13120000       0.84131200
    66  H          0.86470000       0.86880000       0.15868800
    67  H          0.93020000       0.15520000       0.98061200
    68  H          0.06980000       0.84480000       0.01938800
