data_BAVLOB
_symmetry_space_group_name_H-M    'P1'
_symmetry_Int_Tables_number       1
loop_
_symmetry_equiv_pos_site_id
_symmetry_equiv_pos_as_xyz
1 x,y,z
_cell_length_a                   9.73019
_cell_length_b                   54.9385
_cell_length_c                   5.48245
_cell_angle_alpha                90.0
_cell_angle_beta                 92.8796
_cell_angle_gamma                90.0
loop_
_atom_site_label
_atom_site_type_symbol
_atom_site_fract_x
_atom_site_fract_y
_atom_site_fract_z
     1  O          0.32122000       0.09668500       0.68295000
     2  O          0.32122000       0.90331500       0.18295000
     3  O          0.82122000       0.59668500       0.68295000
     4  O          0.82122000       0.40331500       0.18295000
     5  C          0.52754000       0.11928700       0.69517000
     6  C          0.52754000       0.88071300       0.19517000
     7  C          0.02754000       0.61928700       0.69517000
     8  C          0.02754000       0.38071300       0.19517000
     9  H          0.60220000       0.10960000       0.63100000
    10  H          0.60220000       0.89040000       0.13100000
    11  H          0.10220000       0.60960000       0.63100000
    12  H          0.10220000       0.39040000       0.13100000
    13  H          0.56500000       0.13030000       0.82270000
    14  H          0.56500000       0.86970000       0.32270000
    15  H          0.06500000       0.63030000       0.82270000
    16  H          0.06500000       0.36970000       0.32270000
    17  H          0.48290000       0.12890000       0.56270000
    18  H          0.48290000       0.87110000       0.06270000
    19  H          0.98290000       0.62890000       0.56270000
    20  H          0.98290000       0.37110000       0.06270000
    21  C          0.42503000       0.10279600       0.79977000
    22  C          0.42503000       0.89720400       0.29977000
    23  C          0.92503000       0.60279600       0.79977000
    24  C          0.92503000       0.39720400       0.29977000
    25  C          0.45884000       0.09421800       0.05657000
    26  C          0.45884000       0.90578200       0.55657000
    27  C          0.95884000       0.59421800       0.05657000
    28  C          0.95884000       0.40578200       0.55657000
    29  H          0.39030000       0.08220000       0.10270000
    30  H          0.39030000       0.91780000       0.60270000
    31  H          0.89030000       0.58220000       0.10270000
    32  H          0.89030000       0.41780000       0.60270000
    33  H          0.45770000       0.10810000       0.16850000
    34  H          0.45770000       0.89190000       0.66850000
    35  H          0.95770000       0.60810000       0.16850000
    36  H          0.95770000       0.39190000       0.66850000
    37  H          0.55030000       0.08670000       0.06540000
    38  H          0.55030000       0.91330000       0.56540000
    39  H          0.05030000       0.58670000       0.06540000
    40  H          0.05030000       0.41330000       0.56540000
    41  N          0.80692000       0.08344400       0.43875000
    42  N          0.80692000       0.91655600       0.93875000
    43  N          0.30692000       0.58344400       0.43875000
    44  N          0.30692000       0.41655600       0.93875000
    45  N          0.02542000       0.08317400       0.58364000
    46  N          0.02542000       0.91682600       0.08364000
    47  N          0.52542000       0.58317400       0.58364000
    48  N          0.52542000       0.41682600       0.08364000
    49  H          0.11350000       0.08680000       0.59950000
    50  H          0.11350000       0.91320000       0.09950000
    51  H          0.61350000       0.58680000       0.59950000
    52  H          0.61350000       0.41320000       0.09950000
    53  N          0.76253000       0.21842500       0.49475000
    54  N          0.76253000       0.78157500      -0.00525000
    55  N          0.26253000       0.71842500       0.49475000
    56  N          0.26253000       0.28157500      -0.00525000
    57  N          0.42833000       0.17034600       0.35494000
    58  N          0.42833000       0.82965400       0.85494000
    59  N          0.92833000       0.67034600       0.35494000
    60  N          0.92833000       0.32965400       0.85494000
    61  C          0.52744000       0.02351600       0.95067000
    62  C          0.52744000       0.97648400       0.45067000
    63  C          0.02744000       0.52351600       0.95067000
    64  C          0.02744000       0.47648400       0.45067000
    65  H          0.46040000       0.01390000       0.02680000
    66  H          0.46040000       0.98610000       0.52680000
    67  H          0.96040000       0.51390000       0.02680000
    68  H          0.96040000       0.48610000       0.52680000
    69  C          0.48893000       0.03693500       0.74436000
    70  C          0.48893000       0.96306500       0.24436000
    71  C         -0.01107000       0.53693500       0.74436000
    72  C         -0.01107000       0.46306500       0.24436000
    73  H          0.39700000       0.03630000       0.67780000
    74  H          0.39700000       0.96370000       0.17780000
    75  H          0.89700000       0.53630000       0.67780000
    76  H          0.89700000       0.46370000       0.17780000
    77  C          0.58433000       0.05112500       0.63746000
    78  C          0.58433000       0.94887500       0.13746000
    79  C          0.08433000       0.55112500       0.63746000
    80  C          0.08433000       0.44887500       0.13746000
    81  H          0.55810000       0.06040000       0.49640000
    82  H          0.55810000       0.93960000      -0.00360000
    83  H          0.05810000       0.56040000       0.49640000
    84  H          0.05810000       0.43960000      -0.00360000
    85  C          0.72053000       0.05212500       0.73405000
    86  C          0.72053000       0.94787500       0.23405000
    87  C          0.22053000       0.55212500       0.73405000
    88  C          0.22053000       0.44787500       0.23405000
    89  C          0.82303000       0.06741500       0.63235000
    90  C          0.82303000       0.93258500       0.13235000
    91  C          0.32303000       0.56741500       0.63235000
    92  C          0.32303000       0.43258500       0.13235000
    93  C          0.93183000       0.09241500       0.41455000
    94  C          0.93183000       0.90758500       0.91455000
    95  C          0.43183000       0.59241500       0.41455000
    96  C          0.43183000       0.40758500       0.91455000
    97  C          0.96603000       0.11030500       0.23175000
    98  C          0.96603000       0.88969500       0.73175000
    99  C          0.46603000       0.61030500       0.23175000
   100  C          0.46603000       0.38969500       0.73175000
   101  C          0.09863000       0.11820500       0.20005000
   102  C          0.09863000       0.88179500       0.70005000
   103  C          0.59863000       0.61820500       0.20005000
   104  C          0.59863000       0.38179500       0.70005000
   105  H          0.17210000       0.11180000       0.30070000
   106  H          0.17210000       0.88820000       0.80070000
   107  H          0.67210000       0.61180000       0.30070000
   108  H          0.67210000       0.38820000       0.80070000
   109  C          0.12613000       0.13536500       0.02375000
   110  C          0.12613000       0.86463500       0.52375000
   111  C          0.62613000       0.63536500       0.02375000
   112  C          0.62613000       0.36463500       0.52375000
   113  H          0.21850000       0.14030000       0.00580000
   114  H          0.21850000       0.85970000       0.50580000
   115  H          0.71850000       0.64030000       0.00580000
   116  H          0.71850000       0.35970000       0.50580000
   117  C          0.02373000       0.14539500       0.87384000
   118  C          0.02373000       0.85460500       0.37384000
   119  C          0.52373000       0.64539500       0.87384000
   120  C          0.52373000       0.35460500       0.37384000
   121  C          0.05083000       0.16405500       0.68765000
   122  C          0.05083000       0.83594500       0.18765000
   123  C          0.55083000       0.66405500       0.68765000
   124  C          0.55083000       0.33594500       0.18765000
   125  C          0.17573000       0.16572500       0.57745000
   126  C          0.17573000       0.83427500       0.07745000
   127  C          0.67573000       0.66572500       0.57745000
   128  C          0.67573000       0.33427500       0.07745000
   129  H          0.24880000       0.15500000       0.62520000
   130  H          0.24880000       0.84500000       0.12520000
   131  H          0.74880000       0.65500000       0.62520000
   132  H          0.74880000       0.34500000       0.12520000
   133  C          0.19433000       0.18304500       0.39774000
   134  C          0.19433000       0.81695500       0.89774000
   135  C          0.69433000       0.68304500       0.39774000
   136  C          0.69433000       0.31695500       0.89774000
   137  C          0.32443000       0.18443600       0.26994000
   138  C          0.32443000       0.81556400       0.76994000
   139  C          0.82443000       0.68443600       0.26994000
   140  C          0.82443000       0.31556400       0.76994000
   141  C          0.33544000       0.19903600       0.06784000
   142  C          0.33544000       0.80096400       0.56784000
   143  C          0.83544000       0.69903600       0.06784000
   144  C          0.83544000       0.30096400       0.56784000
   145  H          0.25990000       0.20880000       0.01130000
   146  H          0.25990000       0.79120000       0.51130000
   147  H          0.75990000       0.70880000       0.01130000
   148  H          0.75990000       0.29120000       0.51130000
   149  C          0.45535000       0.19935800       0.94922000
   150  C          0.45535000       0.80064200       0.44922000
   151  C          0.95535000       0.69935800       0.94922000
   152  C          0.95535000       0.30064200       0.44922000
   153  H          0.46420000       0.20930000       0.80920000
   154  H          0.46420000       0.79070000       0.30920000
   155  H          0.96420000       0.70930000       0.80920000
   156  H          0.96420000       0.29070000       0.30920000
   157  C          0.56285000       0.18511800       0.03512000
   158  C          0.56285000       0.81488200       0.53512000
   159  C          0.06285000       0.68511800       0.03512000
   160  C          0.06285000       0.31488200       0.53512000
   161  H          0.64770000       0.18500000       0.95710000
   162  H          0.64770000       0.81500000       0.45710000
   163  H          0.14770000       0.68500000       0.95710000
   164  H          0.14770000       0.31500000       0.45710000
   165  C          0.08564000       0.02396600       0.32546000
   166  C          0.08564000       0.97603400       0.82546000
   167  C          0.58564000       0.52396600       0.32546000
   168  C          0.58564000       0.47603400       0.82546000
   169  H          0.11300000       0.01430000       0.46310000
   170  H          0.11300000       0.98570000       0.96310000
   171  H          0.61300000       0.51430000       0.46310000
   172  H          0.61300000       0.48570000       0.96310000
   173  C          0.18224000       0.03773600       0.20966000
   174  C          0.18224000       0.96226400       0.70966000
   175  C          0.68224000       0.53773600       0.20966000
   176  C          0.68224000       0.46226400       0.70966000
   177  H          0.27600000       0.03740000       0.26660000
   178  H          0.27600000       0.96260000       0.76660000
   179  H          0.77600000       0.53740000       0.26660000
   180  H          0.77600000       0.46260000       0.76660000
   181  C          0.14213000       0.05184600       0.01276000
   182  C          0.14213000       0.94815400       0.51276000
   183  C          0.64213000       0.55184600       0.01276000
   184  C          0.64213000       0.44815400       0.51276000
   185  H          0.20850000       0.06130000       0.93430000
   186  H          0.20850000       0.93870000       0.43430000
   187  H          0.70850000       0.56130000       0.93430000
   188  H          0.70850000       0.43870000       0.43430000
   189  C          0.00483000       0.05242500       0.92615000
   190  C          0.00483000       0.94757500       0.42615000
   191  C          0.50483000       0.55242500       0.92615000
   192  C          0.50483000       0.44757500       0.42615000
   193  C          0.95643000       0.06707500       0.72395000
   194  C          0.95643000       0.93292500       0.22395000
   195  C          0.45643000       0.56707500       0.72395000
   196  C          0.45643000       0.43292500       0.22395000
   197  C          0.65933000       0.02377500       0.04626000
   198  C          0.65933000       0.97622500       0.54626000
   199  C          0.15933000       0.52377500       0.04626000
   200  C          0.15933000       0.47622500       0.54626000
   201  H          0.68290000       0.01420000       0.18620000
   202  H          0.68290000       0.98580000       0.68620000
   203  H          0.18290000       0.51420000       0.18620000
   204  H          0.18290000       0.48580000       0.68620000
   205  C          0.76153000       0.03800500       0.94185000
   206  C          0.76153000       0.96199500       0.44185000
   207  C          0.26153000       0.53800500       0.94185000
   208  C          0.26153000       0.46199500       0.44185000
   209  C          0.90463000       0.03803500       0.03876000
   210  C          0.90463000       0.96196500       0.53876000
   211  C          0.40463000       0.53803500       0.03876000
   212  C          0.40463000       0.46196500       0.53876000
   213  C          0.95124000       0.02423500       0.24216000
   214  C          0.95124000       0.97576500       0.74216000
   215  C          0.45124000       0.52423500       0.24216000
   216  C          0.45124000       0.47576500       0.74216000
   217  H          0.88660000       0.01470000       0.32490000
   218  H          0.88660000       0.98530000       0.82490000
   219  H          0.38660000       0.51470000       0.32490000
   220  H          0.38660000       0.48530000       0.82490000
   221  C          0.86293000       0.11980600       0.07666000
   222  C          0.86293000       0.88019400       0.57666000
   223  C          0.36293000       0.61980600       0.07666000
   224  C          0.36293000       0.38019400       0.57666000
   225  H          0.77080000       0.11450000       0.09200000
   226  H          0.77080000       0.88550000       0.59200000
   227  H          0.27080000       0.61450000       0.09200000
   228  H          0.27080000       0.38550000       0.59200000
   229  C          0.89073000       0.13680600       0.89974000
   230  C          0.89073000       0.86319400       0.39974000
   231  C          0.39073000       0.63680600       0.89974000
   232  C          0.39073000       0.36319400       0.39974000
   233  H          0.81780000       0.14270000       0.79440000
   234  H          0.81780000       0.85730000       0.29440000
   235  H          0.31780000       0.64270000       0.79440000
   236  H          0.31780000       0.35730000       0.29440000
   237  C          0.95013000       0.18081500       0.61345000
   238  C          0.95013000       0.81918500       0.11345000
   239  C          0.45013000       0.68081500       0.61345000
   240  C          0.45013000       0.31918500       0.11345000
   241  H          0.86370000       0.18080000       0.68700000
   242  H          0.86370000       0.81920000       0.18700000
   243  H          0.36370000       0.68080000       0.68700000
   244  H          0.36370000       0.31920000       0.18700000
   245  C          0.97593000       0.19762500       0.43125000
   246  C          0.97593000       0.80237500       0.93125000
   247  C          0.47593000       0.69762500       0.43125000
   248  C          0.47593000       0.30237500       0.93125000
   249  C          0.86823000       0.21553500       0.35014000
   250  C          0.86823000       0.78446500       0.85014000
   251  C          0.36823000       0.71553500       0.35014000
   252  C          0.36823000       0.28446500       0.85014000
   253  C          0.66614000       0.23459700       0.42282000
   254  C          0.66614000       0.76540300       0.92282000
   255  C          0.16614000       0.73459700       0.42282000
   256  C          0.16614000       0.26540300       0.92282000
   257  H          0.59040000       0.23670000       0.52360000
   258  H          0.59040000       0.76330000       0.02360000
   259  H          0.09040000       0.73670000       0.52360000
   260  H          0.09040000       0.26330000       0.02360000
   261  C          0.66864000       0.24819600       0.21613000
   262  C          0.66864000       0.75180400       0.71613000
   263  C          0.16864000       0.74819600       0.21613000
   264  C          0.16864000       0.25180400       0.71613000
   265  H          0.59760000       0.25960000       0.17620000
   266  H          0.59760000       0.74040000       0.67620000
   267  H          0.09760000       0.75960000       0.17620000
   268  H          0.09760000       0.24040000       0.67620000
   269  C          0.77514000       0.24508600       0.06813000
   270  C          0.77514000       0.75491400       0.56813000
   271  C          0.27514000       0.74508600       0.06813000
   272  C          0.27514000       0.25491400       0.56813000
   273  H          0.77960000       0.25420000       0.92130000
   274  H          0.77960000       0.74580000       0.42130000
   275  H          0.27960000       0.75420000       0.92130000
   276  H          0.27960000       0.24580000       0.42130000
   277  C          0.87683000       0.22847600       0.13524000
   278  C          0.87683000       0.77152400       0.63524000
   279  C          0.37683000       0.72847600       0.13524000
   280  C          0.37683000       0.27152400       0.63524000
   281  H          0.95210000       0.22600000       0.03440000
   282  H          0.95210000       0.77400000       0.53440000
   283  H          0.45210000       0.72600000       0.03440000
   284  H          0.45210000       0.27400000       0.53440000
   285  N          0.09533000       0.19896400       0.32395000
   286  N          0.09533000       0.80103600       0.82395000
   287  N          0.59533000       0.69896400       0.32395000
   288  N          0.59533000       0.30103600       0.82395000
   289  C          0.54424000       0.17116800       0.23511000
   290  C          0.54424000       0.82883200       0.73511000
   291  C          0.04424000       0.67116800       0.23511000
   292  C          0.04424000       0.32883200       0.73511000
   293  H          0.61890000       0.16130000       0.29400000
   294  H          0.61890000       0.83870000       0.79400000
   295  H          0.11890000       0.66130000       0.29400000
   296  H          0.11890000       0.33870000       0.79400000
