data_BAXMOG
_symmetry_space_group_name_H-M    'P1'
_symmetry_Int_Tables_number       1
loop_
_symmetry_equiv_pos_site_id
_symmetry_equiv_pos_as_xyz
1 x,y,z
_cell_length_a                   9.51978
_cell_length_b                   11.24579
_cell_length_c                   11.78319
_cell_angle_alpha                93.4056
_cell_angle_beta                 91.5656
_cell_angle_gamma                112.2127
loop_
_atom_site_label
_atom_site_type_symbol
_atom_site_fract_x
_atom_site_fract_y
_atom_site_fract_z
     1  B          0.21035000       0.68184000       0.67533000
     2  B          0.78965000       0.31816000       0.32467000
     3  Br         0.26367500       0.54342400       0.58721300
     4  Br         0.73632500       0.45657600       0.41278700
     5  N          0.11164000       0.61523000       0.77762000
     6  N          0.88836000       0.38477000       0.22238000
     7  C         -0.02135000       0.48994000       0.74673000
     8  C          0.02135000       0.51006000       0.25327000
     9  H          0.01100000       0.43430000       0.69560000
    10  H         -0.01100000       0.56570000       0.30440000
    11  H          0.89670000       0.50760000       0.70850000
    12  H          0.10330000       0.49240000       0.29150000
    13  H          0.94210000       0.44660000       0.81610000
    14  H          0.05790000       0.55340000       0.18390000
    15  C          0.06565000       0.70324000       0.85743000
    16  C          0.93435000       0.29676000       0.14257000
    17  H          0.15360000       0.78330000       0.87690000
    18  H          0.84640000       0.21670000       0.12310000
    19  H          0.02910000       0.66030000       0.92700000
    20  H          0.97090000       0.33970000       0.07300000
    21  H         -0.01550000       0.72270000       0.82010000
    22  H          0.01550000       0.27730000       0.17990000
    23  N          0.12223000       0.73333000       0.59452000
    24  N          0.87777000       0.26667000       0.40548000
    25  N          0.97657000       0.72403000       0.61552000
    26  N          0.02343000       0.27597000       0.38448000
    27  C          0.93416000       0.77593000       0.52983000
    28  C          0.06584000       0.22407000       0.47017000
    29  C          0.04514000       0.81684000       0.44983000
    30  C          0.95486000       0.18316000       0.55017000
    31  C          0.16344000       0.78914000       0.49403000
    32  C          0.83656000       0.21086000       0.50597000
    33  Br         0.74053500       0.78446400       0.52530300
    34  Br         0.25946500       0.21553600       0.47469700
    35  Br         0.03684500       0.88921400       0.31240300
    36  Br         0.96315500       0.11078600       0.68759700
    37  Br         0.35518500       0.82964400       0.43563300
    38  Br         0.64481500       0.17035600       0.56436700
    39  N          0.35853000       0.78773000       0.72722000
    40  N          0.64147000       0.21227000       0.27278000
    41  N          0.46873000       0.74973000       0.77362000
    42  N          0.53127000       0.25027000       0.22638000
    43  C          0.56874000       0.85484000       0.82943000
    44  C          0.43126000       0.14516000       0.17057000
    45  C          0.53124000       0.96254000       0.82353000
    46  C          0.46876000       0.03746000       0.17647000
    47  C          0.39564000       0.91593000       0.75783000
    48  C          0.60436000       0.08407000       0.24217000
    49  Br         0.73938500       0.84608500       0.90679400
    50  Br         0.26061500       0.15391500       0.09320600
    51  Br         0.62734500       0.12965400       0.89081300
    52  Br         0.37265500       0.87034600       0.10918700
    53  Br         0.27890500       0.00971400       0.71790400
    54  Br         0.72109500      -0.00971400       0.28209600
    55  H          0.17150000       0.59640000       0.81540000
    56  H          0.82850000       0.40360000       0.18460000
    57  Br         0.27644500       0.54725400      -0.00161700
    58  Br         0.72355500       0.45274600       0.00161700
    59  N          0.50134000       0.48673000       0.80273000
    60  N          0.49866000       0.51327000       0.19727000
    61  C          0.60635000       0.50505000       0.70884000
    62  C          0.39365000       0.49495000       0.29116000
    63  H          0.68190000       0.59350000       0.71580000
    64  H          0.31810000       0.40650000       0.28420000
    65  H          0.54860000       0.48900000       0.63560000
    66  H          0.45140000       0.51100000       0.36440000
    67  H          0.65800000       0.44460000       0.71300000
    68  H          0.34200000       0.55540000       0.28700000
    69  C          0.38376000       0.35454000       0.79734000
    70  C          0.61624000       0.64546000       0.20266000
    71  H          0.31690000       0.34690000       0.86070000
    72  H          0.68310000       0.65310000       0.13930000
    73  H          0.43280000       0.29240000       0.80270000
    74  H          0.56720000       0.70760000       0.19730000
    75  H          0.32350000       0.33660000       0.72500000
    76  H          0.67650000       0.66340000       0.27500000
    77  H          0.55750000       0.49540000       0.87340000
    78  H          0.44250000       0.50460000       0.12660000
    79  H          0.45560000       0.53650000       0.80540000
    80  H          0.54440000       0.46350000       0.19460000
