data_BAXWAC
_symmetry_space_group_name_H-M    'P1'
_symmetry_Int_Tables_number       1
loop_
_symmetry_equiv_pos_site_id
_symmetry_equiv_pos_as_xyz
1 x,y,z
_cell_length_a                   7.6012
_cell_length_b                   9.5362
_cell_length_c                   11.9122
_cell_angle_alpha                101.982
_cell_angle_beta                 104.862
_cell_angle_gamma                97.032
loop_
_atom_site_label
_atom_site_type_symbol
_atom_site_fract_x
_atom_site_fract_y
_atom_site_fract_z
     1  I          0.72070400       0.34312500       0.29660400
     2  I          0.27929600       0.65687500       0.70339600
     3  I          0.00167700       0.20650600       0.46415500
     4  I         -0.00167700       0.79349400       0.53584500
     5  I          0.16437600       0.09103500       0.25935400
     6  I          0.83562400       0.90896500       0.74064600
     7  I          0.30520800      -0.00343600       0.06698500
     8  I          0.69479200       0.00343600       0.93301500
     9  S          0.48827000       0.44102000       0.15788170
    10  S          0.51173000       0.55898000       0.84211830
    11  N          0.59242000       0.73577000       0.25545000
    12  N          0.40758000       0.26423000       0.74455000
    13  N          0.39222000       0.63276000       0.32655000
    14  N          0.60778000       0.36724000       0.67345000
    15  C          0.49591000       0.60887000       0.25106000
    16  C          0.50409000       0.39113000       0.74894000
    17  C          0.55128800       0.84299000       0.33558000
    18  C          0.44871200       0.15701000       0.66442000
    19  H          0.59972800       0.94214600       0.35505600
    20  H          0.40027200       0.05785400       0.64494400
    21  C          0.42898900       0.77858000       0.38017000
    22  C          0.57101100       0.22142000       0.61983000
    23  H          0.37775700       0.82457300       0.43742700
    24  H          0.62224300       0.17542700       0.56257300
    25  C          0.72298600       0.75761300       0.18759000
    26  C          0.27701400       0.24238700       0.81241000
    27  H          0.77508500       0.85952200       0.20632800
    28  H          0.22491500       0.14047800       0.79367200
    29  H          0.82020300       0.70379500       0.20815400
    30  H          0.17979700       0.29620500       0.79184600
    31  H          0.65990800       0.72392500       0.10330100
    32  H          0.34009200       0.27607500       0.89669900
    33  C          0.26188600       0.52361000       0.34709000
    34  C          0.73811400       0.47639000       0.65291000
    35  H          0.20626200       0.56951900       0.40524300
    36  H          0.79373800       0.43048100       0.59475700
    37  H          0.16734900       0.47754900       0.27314400
    38  H          0.83265100       0.52245100       0.72685600
    39  H          0.32575100       0.45165600       0.37617900
    40  H          0.67424900       0.54834400       0.62382100
    41  I          0.08507700       0.64117400       0.01547400
    42  I          0.91492300       0.35882600       0.98452600
