data_BAZKUJ
_symmetry_space_group_name_H-M    'P1'
_symmetry_Int_Tables_number       1
loop_
_symmetry_equiv_pos_site_id
_symmetry_equiv_pos_as_xyz
1 x,y,z
_cell_length_a                   12.785818
_cell_length_b                   5.22181
_cell_length_c                   23.6283
_cell_angle_alpha                90.0
_cell_angle_beta                 103.00011
_cell_angle_gamma                90.0
loop_
_atom_site_label
_atom_site_type_symbol
_atom_site_fract_x
_atom_site_fract_y
_atom_site_fract_z
     1  S          0.97190300       0.01004700       0.60333200
     2  S          0.02809700       0.01004700       0.89666800
     3  S          0.02809700      -0.01004700       0.39666800
     4  S          0.97190300      -0.01004700       0.10333200
     5  O          0.86235110       0.02283000       0.61712600
     6  O          0.13764890       0.02283000       0.88287400
     7  O          0.13764890      -0.02283000       0.38287400
     8  O          0.86235110      -0.02283000       0.11712600
     9  C          0.96722190       0.75684000       0.55179100
    10  C          0.03277810       0.75684000       0.94820900
    11  C          0.03277810       0.24316000       0.44820900
    12  C          0.96722190       0.24316000       0.05179100
    13  C          0.05641190       0.85905000       0.66471110
    14  C          0.94358810       0.85905000       0.83528890
    15  C          0.94358810       0.14095000       0.33528890
    16  C          0.05641190       0.14095000       0.16471110
    17  H          0.91130000       0.80670000       0.51721500
    18  H          0.08870000       0.80670000       0.98278500
    19  H          0.08870000       0.19330000       0.48278500
    20  H          0.91130000       0.19330000       0.01721500
    21  H          0.03630000       0.73880000       0.54421600
    22  H          0.96370000       0.73880000       0.95578400
    23  H          0.96370000       0.26120000       0.45578400
    24  H          0.03630000       0.26120000       0.04421600
    25  H          0.94730000       0.60470000       0.56791400
    26  H          0.05270000       0.60470000       0.93208600
    27  H          0.05270000       0.39530000       0.43208600
    28  H          0.94730000       0.39530000       0.06791400
    29  H          0.01630000       0.70370000       0.67141400
    30  H          0.98370000       0.70370000       0.82858600
    31  H          0.98370000       0.29630000       0.32858600
    32  H          0.01630000       0.29630000       0.17141400
    33  H          0.06130000      -0.02440000       0.69601300
    34  H          0.93870000      -0.02440000       0.80398700
    35  H          0.93870000       0.02440000       0.30398700
    36  H          0.06130000       0.02440000       0.19601300
    37  H          0.12340000       0.80990000       0.65411900
    38  H          0.87660000       0.80990000       0.84588100
    39  H          0.87660000       0.19010000       0.34588100
    40  H          0.12340000       0.19010000       0.15411900
    41  N          0.62401110       0.75592000       0.56882500
    42  N          0.37598890       0.75592000       0.93117500
    43  N          0.37598890       0.24408000       0.43117500
    44  N          0.62401110       0.24408000       0.06882500
    45  N          0.73729110       0.43843000       0.58690500
    46  N          0.26270890       0.43843000       0.91309500
    47  N          0.26270890       0.56157000       0.41309500
    48  N          0.73729110       0.56157000       0.08690500
    49  N          0.60882160       0.05303000       0.70208700
    50  N          0.39117840       0.05303000       0.79791300
    51  N          0.39117840       0.94697000       0.29791300
    52  N          0.60882160       0.94697000       0.20208700
    53  N          0.84724160       0.40554000       0.73806700
    54  N          0.15275840       0.40554000       0.76193300
    55  N          0.15275840       0.59446000       0.26193300
    56  N          0.84724160       0.59446000       0.23806700
    57  O          0.51588110       0.82093000       0.45635500
    58  O          0.48411890       0.82093000       0.04364500
    59  O          0.48411890       0.17907000       0.54364500
    60  O          0.51588110       0.17907000       0.95635500
    61  O          0.78468120       0.18863000       0.49396500
    62  O          0.21531880       0.18863000       0.00603500
    63  O          0.21531880       0.81137000       0.50603500
    64  O          0.78468120       0.81137000      -0.00603500
    65  O          0.70651100       0.30542000       0.40455500
    66  O          0.29348900       0.30542000       0.09544500
    67  O          0.29348900       0.69458000       0.59544500
    68  O          0.70651100       0.69458000       0.90455500
    69  O          0.57034100       0.62013000       0.38566500
    70  O          0.42965900       0.62013000       0.11433500
    71  O          0.42965900       0.37987000       0.61433500
    72  O          0.57034100       0.37987000       0.88566500
    73  C          0.67259120       0.57153000       0.54363600
    74  C          0.32740880       0.57153000       0.95636400
    75  C          0.32740880       0.42847000       0.45636400
    76  C          0.67259120       0.42847000       0.04363600
    77  C          0.65927120       0.74103000       0.62826600
    78  C          0.34072880       0.74103000       0.87173400
    79  C          0.34072880       0.25897000       0.37173400
    80  C          0.65927120       0.25897000       0.12826600
    81  C          0.73012120       0.54293000       0.63956600
    82  C          0.26987880       0.54293000       0.86043400
    83  C          0.26987880       0.45707000       0.36043400
    84  C          0.73012120       0.45707000       0.13956600
    85  C          0.62948130       0.91513000       0.66818700
    86  C          0.37051870       0.91513000       0.83181300
    87  C          0.37051870       0.08487000       0.33181300
    88  C          0.62948130       0.08487000       0.16818700
    89  C          0.79489140       0.46243000       0.69402700
    90  C          0.20510860       0.46243000       0.80597300
    91  C          0.20510860       0.53757000       0.30597300
    92  C          0.79489140       0.53757000       0.19402700
    93  C          0.72164130       0.33413000       0.46342600
    94  C          0.27835870       0.33413000       0.03657400
    95  C          0.27835870       0.66587000       0.53657400
    96  C          0.72164130       0.66587000       0.96342600
    97  C          0.57957120       0.67043000       0.44305600
    98  C          0.42042880       0.67043000       0.05694400
    99  C          0.42042880       0.32957000       0.55694400
   100  C          0.57957120       0.32957000       0.94305600
   101  C          0.65993120       0.53023000       0.48316600
   102  C          0.34006880       0.53023000       0.01683400
   103  C          0.34006880       0.46977000       0.51683400
   104  C          0.65993120       0.46977000       0.98316600
   105  C          0.66265130       0.51773000       0.36818600
   106  C          0.33734870       0.51773000       0.13181400
   107  C          0.33734870       0.48227000       0.63181400
   108  C          0.66265130       0.48227000       0.86818600
   109  C          0.62269140       0.41124000       0.30784700
   110  C          0.37730860       0.41124000       0.19215300
   111  C          0.37730860       0.58876000       0.69215300
   112  C          0.62269140       0.58876000       0.80784700
   113  C          0.74683150       0.72343000       0.37076700
   114  C          0.25316850       0.72343000       0.12923300
   115  C          0.25316850       0.27657000       0.62923300
   116  C          0.74683150       0.27657000       0.87076700
   117  H          0.58120000       0.85850000       0.55231000
   118  H          0.41880000       0.85850000       0.94769000
   119  H          0.41880000       0.14150000       0.44769000
   120  H          0.58120000       0.14150000       0.05231000
   121  H          0.77820000       0.29760000       0.58461100
   122  H          0.22180000       0.29760000       0.91538900
   123  H          0.22180000       0.70240000       0.41538900
   124  H          0.77820000       0.70240000       0.08461100
   125  H          0.57230000       0.27570000       0.31121400
   126  H          0.42770000       0.27570000       0.18878600
   127  H          0.42770000       0.72430000       0.68878600
   128  H          0.57230000       0.72430000       0.81121400
   129  H          0.68130000       0.34470000       0.29371400
   130  H          0.31870000       0.34470000       0.20628600
   131  H          0.31870000       0.65530000       0.70628600
   132  H          0.68130000       0.65530000       0.79371400
   133  H          0.59330000       0.55360000       0.28291400
   134  H          0.40670000       0.55360000       0.21708600
   135  H          0.40670000       0.44640000       0.71708600
   136  H          0.59330000       0.44640000       0.78291400
   137  H          0.71630000       0.86570000       0.34591400
   138  H          0.28370000       0.86570000       0.15408600
   139  H          0.28370000       0.13430000       0.65408600
   140  H          0.71630000       0.13430000       0.84591400
   141  H          0.81030000       0.65370000       0.35951400
   142  H          0.18970000       0.65370000       0.14048600
   143  H          0.18970000       0.34630000       0.64048600
   144  H          0.81030000       0.34630000       0.85951400
   145  H          0.77130000       0.78670000       0.40921400
   146  H          0.22870000       0.78670000       0.09078600
   147  H          0.22870000       0.21330000       0.59078600
   148  H          0.77130000       0.21330000       0.90921400
