data_BDAZAC
_symmetry_space_group_name_H-M    'P1'
_symmetry_Int_Tables_number       1
loop_
_symmetry_equiv_pos_site_id
_symmetry_equiv_pos_as_xyz
1 x,y,z
_cell_length_a                   8.0807
_cell_length_b                   15.2627
_cell_length_c                   8.3818
_cell_angle_alpha                90.0
_cell_angle_beta                 103.502
_cell_angle_gamma                90.0
loop_
_atom_site_label
_atom_site_type_symbol
_atom_site_fract_x
_atom_site_fract_y
_atom_site_fract_z
     1  Cl         0.15000000       0.09330000       0.33930000
     2  Cl         0.85000000       0.59330000       0.16070000
     3  Cl         0.85000000       0.90670000       0.66070000
     4  Cl         0.15000000       0.40670000       0.83930000
     5  C          0.91190000       0.28100000       0.06670000
     6  C          0.08810000       0.78100000       0.43330000
     7  C          0.08810000       0.71900000       0.93330000
     8  C          0.91190000       0.21900000       0.56670000
     9  C          0.84130000       0.36270000       0.07830000
    10  C          0.15870000       0.86270000       0.42170000
    11  C          0.15870000       0.63730000       0.92170000
    12  C          0.84130000       0.13730000       0.57830000
    13  C          0.66920000       0.36940000       0.03520000
    14  C          0.33080000       0.86940000       0.46480000
    15  C          0.33080000       0.63060000       0.96480000
    16  C          0.66920000       0.13060000       0.53520000
    17  C          0.56790000       0.29790000       0.97010000
    18  C          0.43210000       0.79790000       0.52990000
    19  C          0.43210000       0.70210000       0.02990000
    20  C          0.56790000       0.20210000       0.47010000
    21  C          0.64530000       0.21700000       0.95600000
    22  C          0.35470000       0.71700000       0.54400000
    23  C          0.35470000       0.78300000       0.04400000
    24  C          0.64530000       0.28300000       0.45600000
    25  C          0.81680000       0.20700000       0.00840000
    26  C          0.18320000       0.70700000       0.49160000
    27  C          0.18320000       0.79300000      -0.00840000
    28  C          0.81680000       0.29300000       0.50840000
    29  H          0.94000000       0.40800000       0.13100000
    30  H          0.06000000       0.90800000       0.36900000
    31  H          0.06000000       0.59200000       0.86900000
    32  H          0.94000000       0.09200000       0.63100000
    33  H          0.61100000       0.42900000       0.06800000
    34  H          0.38900000       0.92900000       0.43200000
    35  H          0.38900000       0.57100000       0.93200000
    36  H          0.61100000       0.07100000       0.56800000
    37  H          0.44100000       0.30400000       0.92300000
    38  H          0.55900000       0.80400000       0.57700000
    39  H          0.55900000       0.69600000       0.07700000
    40  H          0.44100000       0.19600000       0.42300000
    41  H          0.57800000       0.16200000       0.92700000
    42  H          0.42200000       0.66200000       0.57300000
    43  H          0.42200000       0.83800000       0.07300000
    44  H          0.57800000       0.33800000       0.42700000
    45  H          0.88400000       0.15300000      -0.00900000
    46  H          0.11600000       0.65300000       0.50900000
    47  H          0.11600000       0.84700000       0.00900000
    48  H          0.88400000       0.34700000       0.49100000
    49  N          0.09150000       0.27210000       0.10910000
    50  N          0.90850000       0.77210000       0.39090000
    51  N          0.90850000       0.72790000       0.89090000
    52  N          0.09150000       0.22790000       0.60910000
    53  N          0.22970000       0.26470000       0.14740000
    54  N          0.77030000       0.76470000       0.35260000
    55  N          0.77030000       0.73530000       0.85260000
    56  N          0.22970000       0.23530000       0.64740000
    57  C          0.23250000       0.45010000       0.41740000
    58  C          0.76750000       0.95010000       0.08260000
    59  C          0.76750000       0.54990000       0.58260000
    60  C          0.23250000       0.04990000       0.91740000
    61  C          0.28560000       0.49810000       0.28560000
    62  C          0.71440000      -0.00190000       0.21440000
    63  C          0.71440000       0.50190000       0.71440000
    64  C          0.28560000       0.00190000       0.78560000
    65  H          0.27400000       0.46800000       0.67400000
    66  H          0.72600000       0.96800000       0.82600000
    67  H          0.72600000       0.53200000       0.32600000
    68  H          0.27400000       0.03200000       0.17400000
    69  H          0.34000000       0.44500000       0.22000000
    70  H          0.66000000       0.94500000       0.28000000
    71  H          0.66000000       0.55500000       0.78000000
    72  H          0.34000000       0.05500000       0.72000000
    73  H          0.36900000       0.56600000       0.32800000
    74  H          0.63100000       0.06600000       0.17200000
    75  H          0.63100000       0.43400000       0.67200000
    76  H          0.36900000       0.93400000       0.82800000
    77  H          0.18200000       0.55100000       0.20700000
    78  H          0.81800000       0.05100000       0.29300000
    79  H          0.81800000       0.44900000       0.79300000
    80  H          0.18200000       0.94900000       0.70700000
    81  O          0.16900000       0.37740000       0.40510000
    82  O          0.83100000       0.87740000       0.09490000
    83  O          0.83100000       0.62260000       0.59490000
    84  O          0.16900000       0.12260000       0.90510000
    85  O          0.25130000       0.49520000       0.55570000
    86  O          0.74870000      -0.00480000       0.94430000
    87  O          0.74870000       0.50480000       0.44430000
    88  O          0.25130000       0.00480000       0.05570000
