data_BECPAA02
_symmetry_space_group_name_H-M    'P1'
_symmetry_Int_Tables_number       1
loop_
_symmetry_equiv_pos_site_id
_symmetry_equiv_pos_as_xyz
1 x,y,z
_cell_length_a                   7.25108
_cell_length_b                   13.1202
_cell_length_c                   22.0835
_cell_angle_alpha                77.455012
_cell_angle_beta                 84.452
_cell_angle_gamma                82.20414
loop_
_atom_site_label
_atom_site_type_symbol
_atom_site_fract_x
_atom_site_fract_y
_atom_site_fract_z
     1  Cl         0.49083000       0.19002000       0.09931000
     2  Cl         0.50917000       0.80998000       0.90069000
     3  O          0.67897000       0.17935000       0.07753000
     4  O          0.32103000       0.82065000       0.92247000
     5  O          0.47268000       0.21905000       0.15923000
     6  O          0.52732000       0.78095000       0.84077000
     7  O          0.42167000       0.09094000       0.10433000
     8  O          0.57833000       0.90906000       0.89567000
     9  O          0.38737000       0.27204000       0.05702000
    10  O          0.61263000       0.72796000       0.94298000
    11  Cl         0.15703000       0.30592000       0.39991000
    12  Cl         0.84297000       0.69408000       0.60009000
    13  O          0.30227000       0.32025000       0.43523000
    14  O          0.69773000       0.67975000       0.56477000
    15  O          0.21400000       0.29384000       0.33832000
    16  O          0.78600000       0.70616000       0.66168000
    17  O          0.06988000       0.21695000       0.42983000
    18  O          0.93012000       0.78305000       0.57017000
    19  O          0.02617000       0.40115000       0.39423000
    20  O          0.97383000       0.59885000       0.60577000
    21  N          0.15427000       0.20535000       0.84923000
    22  N          0.84573000       0.79465000       0.15077000
    23  N          0.00208000       0.40205000       0.79113000
    24  N         -0.00208000       0.59795000       0.20887000
    25  C          0.22559000       0.11236000       0.88004000
    26  C          0.77441000       0.88764000       0.11996000
    27  C          0.22281000       0.07816000       0.94373000
    28  C          0.77719000       0.92184000       0.05627000
    29  C          0.14339000       0.14557000       0.97934000
    30  C          0.85661000       0.85443000       0.02066000
    31  C          0.06479000       0.24936000       0.95054000
    32  C          0.93521000       0.75064000       0.04946000
    33  C          0.97531000       0.32637000       0.98584000
    34  C          0.02469000       0.67363000       0.01416000
    35  C          0.90231000       0.42157000       0.95784000
    36  C          0.09769000       0.57843000       0.04216000
    37  C          0.90971000       0.45036000       0.89254000
    38  C          0.09029000       0.54964000       0.10746000
    39  C          0.83321000       0.54886000       0.86014000
    40  C          0.16679000       0.45114000       0.13986000
    41  C          0.83981000       0.57446000       0.79714000
    42  C          0.16019000       0.42554000       0.20286000
    43  C          0.92722000       0.49696000       0.76514000
    44  C          0.07278000       0.50304000       0.23486000
    45  C         -0.00779000       0.37876000       0.85454000
    46  C          0.00779000       0.62124000       0.14546000
    47  C          0.07399000       0.27416000       0.88584000
    48  C          0.92601000       0.72584000       0.11416000
    49  H          0.28499000       0.06416000       0.85574000
    50  H          0.71501000       0.93584000       0.14426000
    51  H          0.27541000       0.00916000       0.96193000
    52  H          0.72459000       0.99084000       0.03807000
    53  H          0.13909000       0.12467000       0.02344000
    54  H          0.86091000       0.87533000       0.97656000
    55  H          0.96911000       0.30837000       0.03004000
    56  H          0.03089000       0.69163000       0.96996000
    57  H          0.84481000       0.47037000       0.98204000
    58  H          0.15519000       0.52963000       0.01796000
    59  H          0.77481000       0.59936000       0.88304000
    60  H          0.22519000       0.40064000       0.11696000
    61  H          0.78811000       0.64146000       0.77564000
    62  H          0.21189000       0.35854000       0.22436000
    63  H          0.93282000       0.51456000       0.72094000
    64  H          0.06718000       0.48544000       0.27906000
    65  N          0.14837000       0.21935000       0.71433000
    66  N          0.85163000       0.78065000       0.28567000
    67  N          0.04478000       0.03225000       0.78033000
    68  N          0.95522000       0.96775000       0.21967000
    69  C          0.20169000       0.31146000       0.68474000
    70  C          0.79831000       0.68854000       0.31526000
    71  C          0.22659000       0.33397000       0.62124000
    72  C          0.77341000       0.66603000       0.37876000
    73  C          0.19599000       0.26307000       0.58724000
    74  C          0.80401000       0.73693000       0.41276000
    75  C          0.13799000       0.16457000       0.61774000
    76  C          0.86201000       0.83543000       0.38226000
    77  C          0.10689000       0.08627000       0.58437000
    78  C          0.89311000       0.91373000       0.41563000
    79  C          0.05559000      -0.00577000       0.61624000
    80  C          0.94441000       0.00577000       0.38376000
    81  C          0.03049000       0.97024000       0.68394000
    82  C          0.96951000       0.02976000       0.31606000
    83  C          0.97361000       0.87714000       0.71854000
    84  C          0.02639000       0.12286000       0.28146000
    85  C          0.95801000       0.86213000       0.78164000
    86  C          0.04199000       0.13787000       0.21836000
    87  C         -0.00589000       0.94313000       0.80974000
    88  C          0.00589000       0.05687000       0.19026000
    89  C          0.05949000       0.04626000       0.71764000
    90  C          0.94051000       0.95374000       0.28236000
    91  C          0.11609000       0.14506000       0.68274000
    92  C          0.88391000       0.85494000       0.31726000
    93  H          0.13041300       0.20291100       0.76383000
    94  H          0.86958700       0.79708900       0.23617000
    95  H          0.22239000       0.36166000       0.70774000
    96  H          0.77761000       0.63834000       0.29226000
    97  H          0.26559000       0.39967000       0.60054000
    98  H          0.73441000       0.60033000       0.39946000
    99  H          0.21359000       0.27977000       0.54314000
   100  H          0.78641000       0.72023000       0.45686000
   101  H          0.12249000       0.09967000       0.54014000
   102  H          0.87751000       0.90033000       0.45986000
   103  H          0.03489000       0.94283000       0.59404000
   104  H          0.96511000       0.05717000       0.40596000
   105  H          0.94601000       0.82444000       0.69844000
   106  H          0.05399000       0.17556000       0.30156000
   107  H          0.92321000       0.79783000       0.80634000
   108  H          0.07679000       0.20217000       0.19366000
   109  H          0.98021000       0.93133000       0.85394000
   110  H          0.01979000       0.06867000       0.14606000
   111  N          0.68653000       0.29795000       0.65093000
   112  N          0.31347000       0.70205000       0.34907000
   113  N          0.58443000       0.10145000       0.70873000
   114  N          0.41557000       0.89855000       0.29127000
   115  C          0.73591000       0.38906000       0.62024000
   116  C          0.26409000       0.61094000       0.37976000
   117  C          0.76239000       0.42107000       0.55564000
   118  C          0.23761000       0.57893000       0.44436000
   119  C          0.74161000       0.34916000       0.52154000
   120  C          0.25839000       0.65084000       0.47846000
   121  C          0.68751000       0.24906000       0.55094000
   122  C          0.31249000       0.75094000       0.44906000
   123  C          0.67142000       0.17127000       0.51454000
   124  C          0.32858000       0.82873000       0.48546000
   125  C          0.62872000       0.07676000       0.54314000
   126  C          0.37128000       0.92324000       0.45686000
   127  C          0.59571000       0.05076000       0.60853000
   128  C          0.40429000       0.94924000       0.39147000
   129  C          0.54811000       0.95124000       0.64084000
   130  C          0.45189000       0.04876000       0.35916000
   131  C          0.51841000       0.92794000       0.70384000
   132  C          0.48159000       0.07206000       0.29616000
   133  C          0.53542000       0.00816000       0.73564000
   134  C          0.46458000      -0.00816000       0.26436000
   135  C          0.61282000       0.12266000       0.64633000
   136  C          0.38718000       0.87734000       0.35367000
   137  C          0.66372000       0.22606000       0.61434000
   138  C          0.33628000       0.77394000       0.38566000
   139  H          0.75571000       0.43786000       0.64444000
   140  H          0.24429000       0.56214000       0.35556000
   141  H          0.79309000       0.48937000       0.53654000
   142  H          0.20691000       0.51063000       0.46346000
   143  H          0.76361000       0.36596000       0.47764000
   144  H          0.23639000       0.63404000       0.52236000
   145  H          0.69132000       0.18787000       0.47054000
   146  H          0.30868000       0.81213000       0.52946000
   147  H          0.62012000       0.02556000       0.51934000
   148  H          0.37988000       0.97444000       0.48066000
   149  H          0.53651000       0.89924000       0.61794000
   150  H          0.46349000       0.10076000       0.38206000
   151  H          0.48761000       0.86084000       0.72534000
   152  H          0.51239000       0.13916000       0.27466000
   153  H          0.50982000      -0.00626000       0.77944000
   154  H          0.49018000       0.00626000       0.22056000
   155  N          0.60063000       0.28865000       0.78553000
   156  N          0.39937000       0.71135000       0.21447000
   157  N          0.45792000       0.47825000       0.71953000
   158  N          0.54208000       0.52175000       0.28047000
   159  C          0.67921000       0.19596000       0.81524000
   160  C          0.32079000       0.80404000       0.18476000
   161  C          0.67251000       0.17247000       0.87944000
   162  C          0.32749000       0.82753000       0.12056000
   163  C          0.59111000       0.24676000       0.91344000
   164  C          0.40889000       0.75324000       0.08656000
   165  C          0.51021000       0.34456000       0.88204000
   166  C          0.48979000       0.65544000       0.11796000
   167  C          0.42731000       0.42726000       0.91364000
   168  C          0.57269000       0.57274000       0.08636000
   169  C          0.36391000       0.52287000       0.88034000
   170  C          0.63609000       0.47713000       0.11966000
   171  C          0.37301000       0.54516000       0.81404000
   172  C          0.62699000       0.45484000       0.18596000
   173  C          0.30391000       0.64566000       0.77914000
   174  C          0.69609000       0.35434000       0.22086000
   175  C          0.31961000       0.65996000       0.71544000
   176  C          0.68039000       0.34004000       0.28456000
   177  C          0.39382000       0.57356000       0.68794000
   178  C          0.60618000       0.42644000       0.31206000
   179  C          0.44491000       0.46706000       0.78144000
   180  C          0.55509000       0.53294000       0.21856000
   181  C          0.51861000       0.36596000       0.81654000
   182  C          0.48139000       0.63404000       0.18346000
   183  H          0.60083000       0.30281300       0.73903800
   184  H          0.39917000       0.69718700       0.26096200
   185  H          0.73991000       0.14606000       0.79224000
   186  H          0.26009000       0.85394000       0.20776000
   187  H          0.72381000       0.10507000       0.90054000
   188  H          0.27619000       0.89493000       0.09946000
   189  H          0.59051000       0.23126000       0.95754000
   190  H          0.40949000       0.76874000       0.04246000
   191  H          0.41731000       0.41446000       0.95784000
   192  H          0.58269000       0.58554000       0.04216000
   193  H          0.31191000       0.57667000       0.90174000
   194  H          0.68809000       0.42333000       0.09826000
   195  H          0.24911000       0.70066000       0.79924000
   196  H          0.75089000       0.29934000       0.20076000
   197  H          0.28151000       0.72666000       0.69024000
   198  H          0.71849000       0.27334000       0.30976000
   199  H          0.39832000       0.58416000       0.64384000
   200  H          0.60168000       0.41584000       0.35616000
