data_BEDJIH
_symmetry_space_group_name_H-M    'P1'
_symmetry_Int_Tables_number       1
loop_
_symmetry_equiv_pos_site_id
_symmetry_equiv_pos_as_xyz
1 x,y,z
_cell_length_a                   9.57743
_cell_length_b                   14.65675
_cell_length_c                   13.18895
_cell_angle_alpha                90.0
_cell_angle_beta                 94.8601
_cell_angle_gamma                90.0
loop_
_atom_site_label
_atom_site_type_symbol
_atom_site_fract_x
_atom_site_fract_y
_atom_site_fract_z
     1  I          0.47837300       0.15112200       0.49156200
     2  I          0.52162700       0.65112200       0.00843800
     3  I          0.52162700       0.84887800       0.50843800
     4  I          0.47837300       0.34887800      -0.00843800
     5  I          0.77461300       0.10563200       0.52010200
     6  I          0.22538700       0.60563200       0.97989800
     7  I          0.22538700       0.89436800       0.47989800
     8  I          0.77461300       0.39436800       0.02010200
     9  I          0.17943300       0.19862200       0.46397200
    10  I          0.82056700       0.69862200       0.03602800
    11  I          0.82056700       0.80137800       0.53602800
    12  I          0.17943300       0.30137800       0.96397200
    13  I          0.75879200       0.43133200       0.42374200
    14  I          0.24120800       0.93133200       0.07625800
    15  I          0.24120800       0.56866800       0.57625800
    16  I          0.75879200       0.06866800       0.92374200
    17  N          0.46233000       0.54692000       0.33072000
    18  N          0.53767000       0.04692000       0.16928000
    19  N          0.53767000       0.45308000       0.66928000
    20  N          0.46233000       0.95308000       0.83072000
    21  C          0.50494000       0.64293000       0.31343000
    22  C          0.49506000       0.14293000       0.18657000
    23  C          0.49506000       0.35707000       0.68657000
    24  C          0.50494000       0.85707000       0.81343000
    25  H          0.57900000       0.64400000       0.26540000
    26  H          0.42100000       0.14400000       0.23460000
    27  H          0.42100000       0.35600000       0.73460000
    28  H          0.57900000       0.85600000       0.76540000
    29  H          0.54390000       0.67000000       0.37850000
    30  H          0.45610000       0.17000000       0.12150000
    31  H          0.45610000       0.33000000       0.62150000
    32  H          0.54390000       0.83000000       0.87850000
    33  C          0.38054000       0.69913000       0.27023000
    34  C          0.61946000       0.19913000       0.22977000
    35  C          0.61946000       0.30087000       0.72977000
    36  C          0.38054000       0.80087000       0.77023000
    37  H          0.40250000       0.76500000       0.27710000
    38  H          0.59750000       0.26500000       0.22290000
    39  H          0.59750000       0.23500000       0.72290000
    40  H          0.40250000       0.73500000       0.77710000
    41  H          0.35980000       0.68520000       0.19710000
    42  H          0.64020000       0.18520000       0.30290000
    43  H          0.64020000       0.31480000       0.80290000
    44  H          0.35980000       0.81480000       0.69710000
    45  N          0.25863000       0.67732000       0.32572000
    46  N          0.74137000       0.17732000       0.17428000
    47  N          0.74137000       0.32268000       0.67428000
    48  N          0.25863000       0.82268000       0.82572000
    49  C          0.12624000       0.70883000       0.27533000
    50  C          0.87376000       0.20883000       0.22467000
    51  C          0.87376000       0.29117000       0.72467000
    52  C          0.12624000       0.79117000       0.77533000
    53  H          0.12260000       0.69520000       0.20160000
    54  H          0.87740000       0.19520000       0.29840000
    55  H          0.87740000       0.30480000       0.79840000
    56  H          0.12260000       0.80480000       0.70160000
    57  H          0.11750000       0.77560000       0.28380000
    58  H          0.88250000       0.27560000       0.21620000
    59  H          0.88250000       0.22440000       0.71620000
    60  H          0.11750000       0.72440000       0.78380000
    61  C          0.00644000       0.66053000       0.32213000
    62  C         -0.00644000       0.16053000       0.17787000
    63  C         -0.00644000       0.33947000       0.67787000
    64  C          0.00644000       0.83947000       0.82213000
    65  H         -0.00470000       0.68630000       0.39040000
    66  H          0.00470000       0.18630000       0.10960000
    67  H          0.00470000       0.31370000       0.60960000
    68  H         -0.00470000       0.81370000       0.89040000
    69  H          0.91800000       0.67080000       0.27910000
    70  H          0.08200000       0.17080000       0.22090000
    71  H          0.08200000       0.32920000       0.72090000
    72  H          0.91800000       0.82920000       0.77910000
    73  N          0.03453000       0.56002000       0.33133000
    74  N          0.96547000       0.06002000       0.16867000
    75  N          0.96547000       0.43998000       0.66867000
    76  N          0.03453000       0.93998000       0.83133000
    77  C          0.04654000       0.51043000       0.23443000
    78  C          0.95346000       0.01043000       0.26557000
    79  C          0.95346000       0.48957000       0.76557000
    80  C          0.04654000       0.98957000       0.73443000
    81  H          0.11060000       0.54350000       0.19220000
    82  H          0.88940000       0.04350000       0.30780000
    83  H          0.88940000       0.45650000       0.80780000
    84  H          0.11060000       0.95650000       0.69220000
    85  H          0.95350000       0.50620000       0.19580000
    86  H          0.04650000       0.00620000       0.30420000
    87  H          0.04650000       0.49380000       0.80420000
    88  H          0.95350000      -0.00620000       0.69580000
    89  C          0.10334000       0.41503000       0.25903000
    90  C          0.89666000       0.91503000       0.24097000
    91  C          0.89666000       0.58497000       0.74097000
    92  C          0.10334000       0.08497000       0.75903000
    93  H          0.03430000       0.38050000       0.29560000
    94  H          0.96570000       0.88050000       0.20440000
    95  H          0.96570000       0.61950000       0.70440000
    96  H          0.03430000       0.11950000       0.79560000
    97  H          0.11640000       0.38230000       0.19480000
    98  H          0.88360000       0.88230000       0.30520000
    99  H          0.88360000       0.61770000       0.80520000
   100  H          0.11640000       0.11770000       0.69480000
   101  N          0.23664000       0.41852000       0.32143000
   102  N          0.76336000       0.91852000       0.17857000
   103  N          0.76336000       0.58148000       0.67857000
   104  N          0.23664000       0.08148000       0.82143000
   105  C          0.42954000       0.48963000       0.23763000
   106  C          0.57046000       0.98963000       0.26237000
   107  C          0.57046000       0.51037000       0.76237000
   108  C          0.42954000       0.01037000       0.73763000
   109  H          0.51650000       0.47640000       0.20480000
   110  H          0.48350000       0.97640000       0.29520000
   111  H          0.48350000       0.52360000       0.79520000
   112  H          0.51650000       0.02360000       0.70480000
   113  H          0.36440000       0.52270000       0.18810000
   114  H          0.63560000       0.02270000       0.31190000
   115  H          0.63560000       0.47730000       0.81190000
   116  H          0.36440000       0.97730000       0.68810000
   117  C          0.36284000       0.40143000       0.26893000
   118  C          0.63716000       0.90143000       0.23107000
   119  C          0.63716000       0.59857000       0.73107000
   120  C          0.36284000       0.09857000       0.76893000
   121  H          0.33800000       0.36370000       0.20770000
   122  H          0.66200000       0.86370000       0.29230000
   123  H          0.66200000       0.63630000       0.79230000
   124  H          0.33800000       0.13630000       0.70770000
   125  H          0.43110000       0.36670000       0.31450000
   126  H          0.56890000       0.86670000       0.18550000
   127  H          0.56890000       0.63330000       0.68550000
   128  H          0.43110000       0.13330000       0.81450000
   129  H          0.23860000       0.39240000       0.38250000
   130  H          0.76140000       0.89240000       0.11750000
   131  H          0.76140000       0.60760000       0.61750000
   132  H          0.23860000       0.10760000       0.88250000
   133  H          0.37560000       0.54940000       0.37450000
   134  H          0.62440000       0.04940000       0.12550000
   135  H          0.62440000       0.45060000       0.62550000
   136  H          0.37560000       0.95060000       0.87450000
   137  H          0.97040000       0.53340000       0.36350000
   138  H          0.02960000       0.03340000       0.13650000
   139  H          0.02960000       0.46660000       0.63650000
   140  H          0.97040000       0.96660000       0.86350000
   141  H          0.26860000       0.69840000       0.38550000
   142  H          0.73140000       0.19840000       0.11450000
   143  H          0.73140000       0.30160000       0.61450000
   144  H          0.26860000       0.80160000       0.88550000
   145  H          0.54160000       0.50940000       0.37140000
   146  H          0.45840000       0.00940000       0.12860000
   147  H          0.45840000       0.49060000       0.62860000
   148  H          0.54160000      -0.00940000       0.87140000
