data_BEDQEK01
_symmetry_space_group_name_H-M    'P1'
_symmetry_Int_Tables_number       1
loop_
_symmetry_equiv_pos_site_id
_symmetry_equiv_pos_as_xyz
1 x,y,z
_cell_length_a                   11.39412
_cell_length_b                   8.21652
_cell_length_c                   12.74702
_cell_angle_alpha                90.0
_cell_angle_beta                 107.60501
_cell_angle_gamma                90.0
loop_
_atom_site_label
_atom_site_type_symbol
_atom_site_fract_x
_atom_site_fract_y
_atom_site_fract_z
     1  O          0.74881900       0.33029110       0.72783700
     2  O          0.75118100       0.83029110       0.77216300
     3  O          0.25118100       0.66970890       0.27216300
     4  O          0.24881900       0.16970890       0.22783700
     5  O          0.75593110       0.07191120       0.59787800
     6  O          0.74406890       0.57191120       0.90212200
     7  O          0.24406890       0.92808880       0.40212200
     8  O          0.25593110       0.42808880       0.09787800
     9  O          0.74090900       0.12743110       0.42854700
    10  O          0.75909100       0.62743110       0.07145300
    11  O          0.25909100       0.87256890       0.57145300
    12  O          0.24090900       0.37256890       0.92854700
    13  O          0.90132800       0.63033110       0.34292700
    14  O          0.59867200       0.13033110       0.15707300
    15  O          0.09867200       0.36966890       0.65707300
    16  O          0.40132800       0.86966890       0.84292700
    17  O          0.93076900       0.83248110       0.45761800
    18  O          0.56923100       0.33248110       0.04238200
    19  O          0.06923100       0.16751890       0.54238200
    20  O          0.43076900       0.66751890       0.95761800
    21  N          0.80361900       0.56807120       0.66732800
    22  N          0.69638100       0.06807120       0.83267200
    23  N          0.19638100       0.43192880       0.33267200
    24  N          0.30361900       0.93192880       0.16732800
    25  H          0.79291400       0.61820000       0.72471400
    26  H          0.70708600       0.11820000       0.77528600
    27  H          0.20708600       0.38180000       0.27528600
    28  H          0.29291400       0.88180000       0.22471400
    29  N          0.76069900       0.16669120       0.52519800
    30  N          0.73930100       0.66669120       0.97480200
    31  N          0.23930100       0.83330880       0.47480200
    32  N          0.26069900       0.33330880       0.02519800
    33  N          0.89751900       0.69293120       0.42941800
    34  N          0.60248100       0.19293120       0.07058200
    35  N          0.10248100       0.30706880       0.57058200
    36  N          0.39751900       0.80706880       0.92941800
    37  C          0.77906100       0.40092140       0.65599900
    38  C          0.72093900       0.90092140       0.84400100
    39  C          0.22093900       0.59907860       0.34400100
    40  C          0.27906100       0.09907860       0.15599900
    41  C          0.79110100       0.33652140       0.55358900
    42  C          0.70889900       0.83652140       0.94641100
    43  C          0.20889900       0.66347860       0.44641100
    44  C          0.29110100       0.16347860       0.05358900
    45  C          0.82580100       0.42942140       0.47974900
    46  C          0.67419900       0.92942140       0.02025100
    47  C          0.17419900       0.57057860       0.52025100
    48  C          0.32580100       0.07057860       0.97974900
    49  H          0.83060200       0.38365700       0.41271700
    50  H          0.66939800       0.88365700       0.08728300
    51  H          0.16939800       0.61634300       0.58728300
    52  H          0.33060200       0.11634300       0.91271700
    53  C          0.85430100       0.59345140       0.50408900
    54  C          0.64569900       0.09345140      -0.00408900
    55  C          0.14569900       0.40654860       0.49591100
    56  C          0.35430100       0.90654860       0.00408900
    57  C          0.83964100       0.66206140       0.59734900
    58  C          0.66035900       0.16206140       0.90265100
    59  C          0.16035900       0.33793860       0.40265100
    60  C          0.33964100       0.83793860       0.09734900
    61  H          0.85488200       0.77474400       0.61193900
    62  H          0.64511800       0.27474400       0.88806100
    63  H          0.14511800       0.22525600       0.38806100
    64  H          0.35488200       0.72525600       0.11193900
    65  C          0.55177110       0.48371160       0.29557100
    66  C          0.94822890      -0.01628840       0.20442900
    67  C          0.44822890       0.51628840       0.70442900
    68  C          0.05177110       0.01628840       0.79557100
    69  H          0.54318900       0.38407800       0.25615500
    70  H          0.95681100       0.88407800       0.24384500
    71  H          0.45681100       0.61592200       0.74384500
    72  H          0.04318900       0.11592200       0.75615500
    73  C          0.59065120       0.61926170       0.25431100
    74  C          0.90934880       0.11926170       0.24568900
    75  C          0.40934880       0.38073830       0.74568900
    76  C          0.09065120       0.88073830       0.75431100
    77  H          0.60973900       0.61287800       0.18685800
    78  H          0.89026100       0.11287800       0.31314200
    79  H          0.39026100       0.38712200       0.81314200
    80  H          0.10973900       0.88712200       0.68685800
    81  C          0.60296120       0.77013170       0.31108110
    82  C          0.89703880       0.27013170       0.18891890
    83  C          0.39703880       0.22986830       0.68891890
    84  C          0.10296120       0.72986830       0.81108110
    85  H          0.62994000       0.86379500       0.28121800
    86  H          0.87006000       0.36379500       0.21878200
    87  H          0.37006000       0.13620500       0.71878200
    88  H          0.12994000       0.63620500       0.78121800
    89  C          0.57631110       0.78134150       0.40812100
    90  C          0.92368890       0.28134150       0.09187900
    91  C          0.42368890       0.21865850       0.59187900
    92  C          0.07631110       0.71865850       0.90812100
    93  H          0.58419900       0.88316300       0.44492200
    94  H          0.91580100       0.38316300       0.05507800
    95  H          0.41580100       0.11683700       0.55507800
    96  H          0.08419900       0.61683700       0.94492200
    97  C          0.53666100       0.64182140       0.45519100
    98  C          0.96333900       0.14182140       0.04480900
    99  C          0.46333900       0.35817860       0.54480900
   100  C          0.03666100       0.85817860       0.95519100
   101  C          0.51248100       0.64829140       0.55638100
   102  C         -0.01248100       0.14829140       0.94361900
   103  C          0.48751900       0.35170860       0.44361900
   104  C          0.01248100       0.85170860       0.05638100
   105  H          0.52091600       0.74897400       0.59459100
   106  H          0.97908400       0.24897400       0.90540900
   107  H          0.47908400       0.25102600       0.40540900
   108  H          0.02091600       0.75102600       0.09459100
   109  C          0.47628100       0.51045140       0.60250900
   110  C          0.02371900       0.01045140       0.89749100
   111  C          0.52371900       0.48954860       0.39749100
   112  C          0.97628100      -0.01045140       0.10250900
