data_BEKBUS
_symmetry_space_group_name_H-M    'P1'
_symmetry_Int_Tables_number       1
loop_
_symmetry_equiv_pos_site_id
_symmetry_equiv_pos_as_xyz
1 x,y,z
_cell_length_a                   8.18846
_cell_length_b                   14.274914
_cell_length_c                   16.373716
_cell_angle_alpha                82.1115
_cell_angle_beta                 87.3365
_cell_angle_gamma                73.7595
loop_
_atom_site_label
_atom_site_type_symbol
_atom_site_fract_x
_atom_site_fract_y
_atom_site_fract_z
     1  I          0.07758200       0.85758800       0.36712200
     2  I          0.92241800       0.14241200       0.63287800
     3  I          0.44735200       0.07742200       0.16223200
     4  I          0.55264800       0.92257800       0.83776800
     5  F          0.70129190       0.98906890       0.31376900
     6  F          0.29870810       0.01093110       0.68623100
     7  F          0.20562000       0.83061880       0.18202100
     8  F          0.79438000       0.16938120       0.81797900
     9  F          0.04882000       0.88360860       0.03545100
    10  F          0.95118000       0.11639140       0.96454900
    11  F          0.71942000       0.98695870       0.02633900
    12  F          0.28058000       0.01304130       0.97366100
    13  C          0.95583000       0.90692820       0.25214150
    14  C          0.04417000       0.09307180       0.74785850
    15  C          0.78763000       0.96180820       0.24503150
    16  C          0.21237000       0.03819180       0.75496850
    17  C          0.70243000       0.99091820       0.17051150
    18  C          0.29757000       0.00908180       0.82948850
    19  C          0.79443000       0.96278000       0.10063160
    20  C          0.20557000       0.03722000       0.89936840
    21  C          0.96284000       0.90988000       0.10438160
    22  C          0.03716000       0.09012000       0.89561840
    23  C          0.04183000       0.88288810       0.17960170
    24  C          0.95817000       0.11711190       0.82039830
    25  I          0.21741300       0.07159200       0.40765200
    26  I          0.78258700       0.92840800       0.59234800
    27  I          0.37476200       0.31865200       0.64912200
    28  I          0.62523800       0.68134800       0.35087800
    29  F          0.37682000       0.13609110       0.55757100
    30  F          0.62318000       0.86390890       0.44242900
    31  F          0.05322000       0.28819140       0.32209100
    32  F          0.94678000       0.71180860       0.67790900
    33  F          0.04773000       0.46577130       0.36088110
    34  F          0.95227000       0.53422870       0.63911890
    35  F          0.19813000       0.48118120       0.49895110
    36  F          0.80187000       0.51881880       0.50104890
    37  C          0.21744000       0.20782000       0.43909160
    38  C          0.78256000       0.79218000       0.56090840
    39  C          0.29423000       0.21796190       0.50939160
    40  C          0.70577000       0.78203810       0.49060840
    41  C          0.28773000       0.30822000       0.53310160
    42  C          0.71227000       0.69178000       0.46689840
    43  C          0.20594000       0.39062000       0.48071180
    44  C          0.79406000       0.60938000       0.51928820
    45  C          0.12894000       0.38402000       0.40998170
    46  C          0.87106000       0.61598000       0.59001830
    47  C          0.13364000       0.29282000       0.39034160
    48  C          0.86636000       0.70718000       0.60965840
    49  N          0.75323000       0.21756170       0.47664140
    50  N          0.24677000       0.78243830       0.52335860
    51  N          0.25983000       0.50777170       0.12644140
    52  N          0.74017000       0.49222830       0.87355860
    53  N          0.11723000       0.20814170       0.14250140
    54  N          0.88277000       0.79185830       0.85749860
    55  N          0.56683000       0.67459150       0.18335130
    56  N          0.43317000       0.32540850       0.81664870
    57  C          0.72514000       0.31512000       0.45907160
    58  C          0.27486000       0.68488000       0.54092840
    59  H          0.76310000       0.34870000       0.49730000
    60  H          0.23690000       0.65130000       0.50270000
    61  C          0.64443000       0.36992000       0.38903160
    62  C          0.35557000       0.63008000       0.61096840
    63  H          0.62880000       0.43900000       0.38010000
    64  H          0.37120000       0.56100000       0.61990000
    65  C          0.69644000       0.17352000       0.42160170
    66  C          0.30356000       0.82648000       0.57839830
    67  H          0.71470000       0.10430000       0.43210000
    68  H          0.28530000       0.89570000       0.56790000
    69  C          0.61243000       0.22283190       0.35001160
    70  C          0.38757000       0.77716810       0.64998840
    71  H          0.57290000       0.18750000       0.31370000
    72  H          0.42710000       0.81250000       0.68630000
    73  C          0.58583000       0.32399190       0.33123150
    74  C          0.41417000       0.67600810       0.66876850
    75  C          0.49623000       0.37748180       0.25239150
    76  C          0.50377000       0.62251820       0.74760850
    77  H          0.41030000       0.34610000       0.23550000
    78  H          0.58970000       0.65390000       0.76450000
    79  C          0.42303000       0.49091180       0.25115150
    80  C          0.57697000       0.50908820       0.74884850
    81  H          0.41170000       0.51150000       0.30760000
    82  H          0.58830000       0.48850000       0.69240000
    83  C          0.26583000       0.53839190       0.19989160
    84  C          0.73417000       0.46160810       0.80010840
    85  C          0.13733000       0.61434190       0.22718180
    86  C          0.86267000       0.38565810       0.77281820
    87  H          0.14360000       0.63380000       0.27990000
    88  H          0.85640000       0.36620000       0.72010000
    89  C         -0.00014000       0.66112000       0.17632000
    90  C          0.00014000       0.33888000       0.82368000
    91  H          0.90980000       0.71250000       0.19410000
    92  H          0.09020000       0.28750000       0.80590000
    93  C         -0.00474000       0.63242000       0.09989190
    94  C          0.00474000       0.36758000       0.90010810
    95  H          0.90420000       0.66460000       0.06320000
    96  H          0.09580000       0.33540000       0.93680000
    97  C          0.12683000       0.55552000       0.07810180
    98  C          0.87317000       0.44448000       0.92189820
    99  H          0.12270000       0.53510000       0.02560000
   100  H          0.87730000       0.46490000       0.97440000
   101  C          0.09113000       0.30472000       0.14290160
   102  C          0.90887000       0.69528000       0.85709840
   103  H          0.18600000       0.33090000       0.13420000
   104  H          0.81400000       0.66910000       0.86580000
   105  C          0.93273000       0.36887190       0.15534160
   106  C          0.06727000       0.63112810       0.84465840
   107  H          0.92160000       0.43680000       0.15590000
   108  H          0.07840000       0.56320000       0.84410000
   109  C          0.97944000       0.17472000       0.15289180
   110  C          0.02056000       0.82528000       0.84710820
   111  H         -0.00600000       0.10640000       0.15250000
   112  H          0.00600000       0.89360000       0.84750000
   113  C          0.81773000       0.23372000       0.16410170
   114  C          0.18227000       0.76628000       0.83589830
   115  H          0.72420000       0.20610000       0.17000000
   116  H          0.27580000       0.79390000       0.83000000
   117  C          0.79133000       0.33390190       0.16681140
   118  C          0.20867000       0.66609810       0.83318860
   119  C          0.61703000       0.40019180       0.17819150
   120  C          0.38297000       0.59980820       0.82180850
   121  H          0.55340000       0.40900000       0.12570000
   122  H          0.44660000       0.59100000       0.87430000
   123  C          0.59133000       0.50285180       0.20529140
   124  C          0.40867000       0.49714820       0.79470860
   125  H          0.67850000       0.49770000       0.24770000
   126  H          0.32150000       0.50230000       0.75230000
   127  C          0.57883000       0.59474180       0.14635150
   128  C          0.42117000       0.40525820       0.85364850
   129  C          0.57253000       0.60032000       0.06134160
   130  C          0.42747000       0.39968000       0.93865840
   131  H          0.58110000       0.54290000       0.03630000
   132  H          0.41890000       0.45710000       0.96370000
   133  C          0.55343000       0.69042000       0.01322160
   134  C          0.44657000       0.30958000       0.98677840
   135  H          0.54820000       0.69570000       0.95490000
   136  H          0.45180000       0.30430000       0.04510000
   137  C          0.54233000       0.77272000       0.05161170
   138  C          0.45767000       0.22728000       0.94838830
   139  H          0.52970000       0.83540000       0.02030000
   140  H          0.47030000       0.16460000       0.97970000
   141  C          0.54973000       0.76101190       0.13603170
   142  C          0.45027000       0.23898810       0.86396830
   143  H          0.54240000       0.81730000       0.16240000
   144  H          0.45760000       0.18270000       0.83760000
