data_BEKCAZ
_symmetry_space_group_name_H-M    'P1'
_symmetry_Int_Tables_number       1
loop_
_symmetry_equiv_pos_site_id
_symmetry_equiv_pos_as_xyz
1 x,y,z
_cell_length_a                   9.14991
_cell_length_b                   10.601111
_cell_length_c                   10.942112
_cell_angle_alpha                62.0545
_cell_angle_beta                 77.0145
_cell_angle_gamma                76.8285
loop_
_atom_site_label
_atom_site_type_symbol
_atom_site_fract_x
_atom_site_fract_y
_atom_site_fract_z
     1  I          0.58811400       0.28979400       0.55200400
     2  I          0.41188600       0.71020600       0.44799600
     3  I          0.72835400       0.20098300       0.24464300
     4  I          0.27164600       0.79901700       0.75535700
     5  F          0.45694000       0.09893000       0.20603000
     6  F          0.54306000       0.90107000       0.79397000
     7  F          0.16994000       0.07544000       0.33284000
     8  F          0.83006000       0.92456000       0.66716000
     9  F          0.06583000       0.15344000       0.54234000
    10  F          0.93417000       0.84656000       0.45766000
    11  F          0.24854000       0.24434000       0.63373000
    12  F          0.75146000       0.75566000       0.36627000
    13  C          0.50865000       0.18205000       0.35695000
    14  C          0.49135000       0.81795000       0.64305000
    15  C          0.41086000       0.13455000       0.31325000
    16  C          0.58914000       0.86545000       0.68675000
    17  C          0.26296000       0.12295000       0.37555000
    18  C          0.73704000       0.87705000       0.62445000
    19  C          0.21015000       0.16215000       0.48235000
    20  C          0.78985000       0.83785000       0.51765000
    21  C          0.30586000       0.20815000       0.52775000
    22  C          0.69414000       0.79185000       0.47225000
    23  C          0.45615000       0.21875000       0.46805000
    24  C          0.54385000       0.78125000       0.53195000
    25  N          0.26425000       0.60205000       0.30985000
    26  N          0.73575000       0.39795000       0.69015000
    27  N          0.03775000       0.19585000       0.07474000
    28  N          0.96225000       0.80415000       0.92526000
    29  C          0.33946000       0.55256000       0.21766000
    30  C          0.66054000       0.44744000       0.78234000
    31  H          0.44650000       0.54800000       0.19930000
    32  H          0.55350000       0.45200000       0.80070000
    33  C          0.27116000       0.50775000       0.14735000
    34  C          0.72884000       0.49225000       0.85265000
    35  H          0.33070000       0.47450000       0.08210000
    36  H          0.66930000       0.52550000       0.91790000
    37  C          0.11525000       0.51125000       0.17235000
    38  C          0.88475000       0.48875000       0.82765000
    39  C          0.03686000       0.55996000       0.27006000
    40  C          0.96314000       0.44004000       0.72994000
    41  H          0.92990000       0.56330000       0.29220000
    42  H          0.07010000       0.43670000       0.70780000
    43  C          0.11447000       0.60346000       0.33456000
    44  C          0.88553000       0.39654000       0.66544000
    45  H          0.05780000       0.63640000       0.40070000
    46  H          0.94220000       0.36360000       0.59930000
    47  C          0.02915000       0.45895000       0.10635000
    48  C          0.97085000       0.54105000       0.89365000
    49  H         -0.00840000       0.36730000       0.17940000
    50  H          0.00840000       0.63270000       0.82060000
    51  C          0.10665000       0.43655000       0.97405000
    52  C          0.89335000       0.56345000       0.02595000
    53  H          0.20090000       0.48290000       0.93380000
    54  H          0.79910000       0.51710000       0.06620000
    55  C          0.14115000       0.28325000      -0.00595000
    56  C          0.85885000       0.71675000       0.00595000
    57  C          0.27586000       0.23666000       0.92825000
    58  C          0.72414000       0.76334000       0.07175000
    59  H          0.34550000       0.30180000       0.86850000
    60  H          0.65450000       0.69820000       0.13150000
    61  C          0.30646000       0.09366000       0.95124000
    62  C          0.69354000       0.90634000       0.04876000
    63  H          0.39810000       0.05920000       0.90830000
    64  H          0.60190000       0.94080000       0.09170000
    65  C          0.20277000       0.00236000       0.03716000
    66  C          0.79723000      -0.00236000       0.96284000
    67  H          0.22160000       0.90350000       0.05570000
    68  H          0.77840000       0.09650000       0.94430000
    69  C          0.07027000       0.05806000       0.09556000
    70  C          0.92973000       0.94194000       0.90444000
    71  H         -0.00200000      -0.00500000       0.15380000
    72  H          0.00200000       0.00500000       0.84620000
