data_BENBEF
_symmetry_space_group_name_H-M    'P1'
_symmetry_Int_Tables_number       1
loop_
_symmetry_equiv_pos_site_id
_symmetry_equiv_pos_as_xyz
1 x,y,z
_cell_length_a                   17.719416
_cell_length_b                   5.43345
_cell_length_c                   25.1002
_cell_angle_alpha                90.0
_cell_angle_beta                 97.6744
_cell_angle_gamma                90.0
loop_
_atom_site_label
_atom_site_type_symbol
_atom_site_fract_x
_atom_site_fract_y
_atom_site_fract_z
     1  Cl         0.65518800       0.29973000       0.33124500
     2  Cl         0.34481200       0.79973000       0.66875500
     3  Cl         0.65803800       0.39173000       0.20437600
     4  Cl         0.34196200       0.89173000       0.79562400
     5  C          0.57693000       0.26791100       0.28312000
     6  C          0.42307000       0.76791100       0.71688000
     7  H          0.53017000       0.21853000       0.29445800
     8  H          0.46983000       0.71853000       0.70554200
     9  C          0.57823000       0.30781000       0.23192000
    10  C          0.42177000       0.80781000       0.76808000
    11  H          0.53193100       0.28909700       0.20831100
    12  H          0.46806900       0.78909700       0.79168900
    13  N          0.88122000       0.24707000       0.47371130
    14  N          0.11878000       0.74707000       0.52628870
    15  N          0.74662000       0.13037000       0.52349140
    16  N          0.25338000       0.63037000       0.47650860
    17  N          0.25882000       0.29317000       0.17766150
    18  N          0.74118000       0.79317000       0.82233850
    19  N          0.84502000       0.92057000       0.11018140
    20  N          0.15498000       0.42057000       0.88981860
    21  N          0.71402000       0.86337000       0.03105140
    22  N          0.28598000       0.36337000       0.96894860
    23  N          0.27432000      -0.00277000       0.27249150
    24  N          0.72568000       0.49723000       0.72750850
    25  C          0.87862000       0.26038000       0.53171150
    26  C          0.12138000       0.76038000       0.46828850
    27  H          0.85938400       0.42593700       0.54092400
    28  H          0.14061600       0.92593700       0.45907600
    29  C          0.85732000       0.43598000       0.38702160
    30  C          0.14268000       0.93598000       0.61297840
    31  C          0.80112000       0.86518000       0.21621170
    32  C          0.19888000       0.36518000       0.78378830
    33  H          0.77802900      -0.00118800       0.19576600
    34  H          0.22197100       0.49881200       0.80423400
    35  C          0.87542000       0.49038000       0.22065170
    36  C          0.12458000      -0.00962000       0.77934830
    37  H          0.90129800       0.36701300       0.20328700
    38  H          0.09870200       0.86701300       0.79671300
    39  C          0.60702000       0.75929000       0.07542170
    40  C          0.39298000       0.25929000       0.92457830
    41  C          0.85312000       0.71418000       0.13415170
    42  C          0.14688000       0.21418000       0.86584830
    43  H          0.86514200       0.57273500       0.11467000
    44  H          0.13485800       0.07273500       0.88533000
    45  C          0.84412000       0.68908000       0.19163160
    46  C          0.15588000       0.18908000       0.80836840
    47  C          0.89762000       0.25398000       0.36150170
    48  C          0.10238000       0.75398000       0.63849830
    49  H          0.92069300       0.11985200       0.38182100
    50  H          0.07930700       0.61985200       0.61817900
    51  C          0.79272000       0.84298000       0.26949160
    52  C          0.20728000       0.34298000       0.73050840
    53  H          0.76317300       0.96056000       0.28556400
    54  H          0.23682700       0.46056000       0.71443600
    55  C          0.90332000       0.27088000       0.30797170
    56  C          0.09668000       0.77088000       0.69202830
    57  H          0.93064400       0.14801300       0.29155500
    58  H          0.06935600       0.64801300       0.70844500
    59  C          0.59103000       0.53868000       0.04572180
    60  C          0.40897000       0.03868000       0.95427820
    61  H          0.62308200       0.48965700       0.02018700
    62  H          0.37691800      -0.01034300       0.97981300
    63  C          0.85462000       0.42579000       0.44483160
    64  C          0.14538000       0.92579000       0.55516840
    65  H          0.83201500       0.55884700       0.46145000
    66  H          0.16798500       0.05884700       0.53855000
    67  C          0.59252000       0.24818000       0.47930170
    68  C          0.40748000       0.74818000       0.52069830
    69  H          0.61589400       0.35508100       0.50658900
    70  H          0.38410600       0.85508100       0.49341100
    71  C          0.95862000       0.21108000       0.62174160
    72  C          0.04138000       0.71108000       0.37825840
    73  H          0.01109700       0.18347000       0.63973400
    74  H          0.98890300       0.68347000       0.36026600
    75  H          0.94024900       0.36939300       0.63472100
    76  H          0.05975100       0.86939300       0.36527900
    77  C          0.37222000       0.38699000       0.13891170
    78  C          0.62778000       0.88699000       0.86108830
    79  C          0.49763000       0.68118000       0.12239190
    80  C          0.50237000       0.18118000       0.87760810
    81  C          0.30842000       0.22778000       0.14798170
    82  C          0.69158000       0.72778000       0.85201830
    83  H          0.30381200       0.07064000       0.13122700
    84  H          0.69618800       0.57064000       0.86877300
    85  C          0.48652000       0.14798000       0.41108170
    86  C          0.51348000       0.64798000       0.58891830
    87  C          0.82762000       0.64648000       0.30102170
    88  C          0.17238000       0.14648000       0.69897830
    89  C          0.85042000       0.92789000       0.05270160
    90  C          0.14958000       0.42789000       0.94729840
    91  H          0.85729500       0.75678600       0.03940800
    92  H          0.14270500       0.25678600       0.96059200
    93  C          0.59762000       0.87871000       0.42658180
    94  C          0.40238000       0.37871000       0.57341820
    95  H          0.62320100       0.73278000       0.41842400
    96  H          0.37679900       0.23278000       0.58157600
    97  C          0.52982000       0.39609000       0.05345170
    98  C          0.47018000       0.89609000       0.94654830
    99  H          0.51981400       0.24951500       0.03308200
   100  H          0.48018600       0.74951500       0.96691800
   101  C          0.41842000       0.31878000       0.10080180
   102  C          0.58158000       0.81878000       0.89919820
   103  H          0.40751900       0.17192800       0.08067200
   104  H          0.59248100       0.67192800       0.91932800
   105  C          0.56112000       0.82599000       0.11297180
   106  C          0.43888000       0.32599000       0.88702820
   107  H          0.57214700       0.97247800       0.13312700
   108  H          0.42785300       0.47247800       0.86687300
   109  C          0.95872000       0.22329000       0.56102160
   110  C          0.04128000       0.72329000       0.43897840
   111  H         -0.00841000       0.36087400       0.55234700
   112  H          0.00841000       0.86087400       0.44765300
   113  H          0.98017100       0.06864900       0.54851600
   114  H          0.01982900       0.56864900       0.45148400
   115  C          0.86942000       0.46798000       0.27627170
   116  C          0.13058000       0.96798000       0.72372830
   117  C          0.90743000       0.00388000       0.63590170
   118  C          0.09257000       0.50388000       0.36409830
   119  H          0.90700400       0.00003800       0.67529500
   120  H          0.09299600       0.50003800       0.32470500
   121  H          0.92773200       0.84446200       0.62498800
   122  H          0.07226800       0.34446200       0.37501200
   123  C          0.52202000       0.30209000       0.45338170
   124  C          0.47798000       0.80209000       0.54661830
   125  H          0.49601100       0.44384400       0.46353200
   126  H          0.50398900       0.94384400       0.53646800
   127  C          0.38293000       0.05898000       0.33984180
   128  C          0.61707000       0.55898000       0.66015820
   129  C          0.20042000       0.11239000       0.18656170
   130  C          0.79958000       0.61239000       0.81343830
   131  H          0.21283200       0.94967300       0.17121600
   132  H          0.78716800       0.44967300       0.82878400
   133  C          0.48102000       0.46428000       0.09163170
   134  C          0.51898000       0.96428000       0.90836830
   135  C          0.67072000       0.91919000       0.06564180
   136  C          0.32928000       0.41919000       0.93435820
   137  H          0.67954600       0.06722700       0.08560600
   138  H          0.32045400       0.56722700       0.91439400
   139  C          0.70903000      -0.02298000       0.49218170
   140  C          0.29097000       0.47702000       0.50781830
   141  H          0.73137400       0.82295000       0.48562100
   142  H          0.26862600       0.32295000       0.51437900
   143  C          0.52523000       0.93232000       0.39797180
   144  C          0.47477000       0.43232000       0.60202820
   145  C          0.20042000       0.08819000       0.24739170
   146  C          0.79958000       0.58819000       0.75260830
   147  H          0.19033700       0.25272900       0.26276900
   148  H          0.80966300       0.75272900       0.73723100
   149  C          0.82302000       0.62868000       0.35672170
   150  C          0.17698000       0.12868000       0.64327830
   151  H          0.79600400       0.75060400       0.37361200
   152  H          0.20399600       0.25060400       0.62638800
   153  C          0.63152000       0.03298000       0.46580180
   154  C          0.36848000       0.53298000       0.53419820
   155  C          0.38843000       0.60288000       0.16918190
   156  C          0.61157000       0.10288000       0.83081810
   157  H          0.35671300       0.64957700       0.19512700
   158  H          0.64328700       0.14957700       0.80487300
   159  C          0.82623000       0.03829000       0.60769180
   160  C          0.17377000       0.53829000       0.39230820
   161  H          0.79478800       0.89595700       0.61587300
   162  H          0.20521200       0.39595700       0.38412700
   163  H          0.80406300       0.18819600       0.62173000
   164  H          0.19593700       0.68819600       0.37827000
   165  C          0.49073000       0.78111000       0.35544190
   166  C          0.50927000       0.28111000       0.64455810
   167  H          0.51613900       0.63611200       0.34638500
   168  H          0.48386100       0.13611200       0.65361500
   169  C          0.92123000       0.10731000       0.98134820
   170  C          0.07877000       0.60731000       0.01865180
   171  H          0.96495500       0.21163200       0.97501500
   172  H          0.03504500       0.71163200       0.02498500
   173  H          0.92864400       0.94198500       0.96630900
   174  H          0.07135600       0.44198500       0.03369100
   175  C          0.41523000       0.20438000       0.38150180
   176  C          0.58477000       0.70438000       0.61849820
   177  H          0.38877500       0.34701400       0.39068700
   178  H          0.61122500       0.84701400       0.60931300
   179  C          0.44963000       0.74639000       0.16153190
   180  C          0.55037000       0.24639000       0.83846810
   181  H          0.46027500       0.89072700       0.18251700
   182  H          0.53972500       0.39072700       0.81748300
   183  C          0.77602000       0.03418000       0.02434170
   184  C          0.22398000       0.53418000       0.97565830
   185  H          0.76593500       0.19700500       0.04052900
   186  H          0.23406500       0.69700500       0.95947100
   187  C          0.82382000       0.06098000       0.54702170
   188  C          0.17618000       0.56098000       0.45297830
   189  H          0.83743000       0.89912100       0.53188000
   190  H          0.16257000       0.39912100       0.46812000
   191  C          0.42163000       0.84011000       0.32719190
   192  C          0.57837000       0.34011000       0.67280810
   193  H          0.39931900       0.73543300       0.29910600
   194  H          0.60068100       0.23543300       0.70089400
   195  C          0.30982000       0.12879000       0.30937180
   196  C          0.69018000       0.62879000       0.69062820
   197  H          0.28765700       0.28084600       0.31769900
   198  H          0.71234300       0.78084600       0.68230100
   199  C          0.91793000       0.08669000       0.04178180
   200  C          0.08207000       0.58669000       0.95821820
   201  H          0.96580700       0.01265500       0.05960300
   202  H          0.03419300       0.51265500       0.94039700
   203  H          0.91296000       0.25285700       0.05705900
   204  H          0.08704000       0.75285700       0.94294100
   205  C          0.84743000       0.22009000       0.95318820
   206  C          0.15257000       0.72009000       0.04681180
   207  H          0.84185800       0.38973200       0.96643200
   208  H          0.15814200       0.88973200       0.03356800
   209  H          0.84943500       0.22796000       0.91399500
   210  H          0.15056500       0.72796000       0.08600500
   211  C          0.12273000       0.19939000       0.15987190
   212  C          0.87727000       0.69939000       0.84012810
   213  H          0.12285700       0.20822600       0.12049400
   214  H          0.87714300       0.70822600       0.87950600
   215  H          0.11268700       0.36664800       0.17287300
   216  H          0.88731300       0.86664800       0.82712700
   217  C          0.13883000       0.90839000       0.25885180
   218  C          0.86117000       0.40839000       0.74114820
   219  H          0.13875600       0.89498100       0.29817700
   220  H          0.86124400       0.39498100       0.70182300
   221  H          0.14999800       0.74353700       0.24504000
   222  H          0.85000200       0.24353700       0.75496000
   223  C          0.77913000       0.06529000       0.96403820
   224  C          0.22087000       0.56529000       0.03596180
   225  H          0.78220200       0.90108900       0.94735100
   226  H          0.21779800       0.40108900       0.05264900
   227  H          0.73165000       0.14542000       0.94721900
   228  H          0.26835000       0.64542000       0.05278100
   229  C          0.06043000      -0.00741100       0.23248190
   230  C          0.93957000       0.49258900       0.76751810
   231  H          0.02177000       0.86898200       0.23921600
   232  H          0.97823000       0.36898200       0.76078400
   233  H          0.04720700       0.15030600       0.24867300
   234  H          0.95279300       0.65030600       0.75132700
   235  C          0.05933000       0.02591000       0.17211180
   236  C          0.94067000       0.52591000       0.82788820
   237  H          0.00939000       0.09372700       0.15642600
   238  H          0.99061000       0.59372700       0.84357400
   239  H          0.06577500       0.86388400       0.15526200
   240  H          0.93422500       0.36388400       0.84473800
