data_BENJIR
_symmetry_space_group_name_H-M    'P1'
_symmetry_Int_Tables_number       1
loop_
_symmetry_equiv_pos_site_id
_symmetry_equiv_pos_as_xyz
1 x,y,z
_cell_length_a                   10.84614
_cell_length_b                   11.46903
_cell_length_c                   11.54944
_cell_angle_alpha                68.8383
_cell_angle_beta                 69.0033
_cell_angle_gamma                75.0243
loop_
_atom_site_label
_atom_site_type_symbol
_atom_site_fract_x
_atom_site_fract_y
_atom_site_fract_z
     1  I          0.84142800       0.88284200       0.46855200
     2  I          0.15857200       0.11715800       0.53144800
     3  F          0.63643810       0.86622000       0.33002000
     4  F          0.36356190       0.13378000       0.66998000
     5  F          0.61898000       0.04332000       0.64622000
     6  F          0.38102000       0.95668000       0.35378000
     7  C          0.63698000       0.95383000       0.48623000
     8  C          0.36302000       0.04617000       0.51377000
     9  C          0.56277000       0.02093000       0.57153000
    10  C          0.43723000       0.97907000       0.42847000
    11  C          0.57077000       0.93363000       0.41513000
    12  C          0.42923000       0.06637000       0.58487000
    13  I          0.16368200       0.54152200       0.19112200
    14  I          0.83631800       0.45847800       0.80887800
    15  F          0.85356830       0.57502000       0.21307170
    16  F          0.14643170       0.42498000       0.78692830
    17  F          0.27011150       0.45394180       0.93400820
    18  F          0.72988850       0.54605820       0.06599180
    19  C          0.06583000       0.51533000       0.07723000
    20  C          0.93417000       0.48467000       0.92277000
    21  C          0.92787000       0.53733000       0.10803000
    22  C          0.07213000       0.46267000       0.89197000
    23  C          0.13612000       0.47773000       0.96787000
    24  C          0.86388000       0.52227000       0.03213000
    25  N          0.30752000       0.59122000       0.33812000
    26  N          0.69248000       0.40878000       0.66188000
    27  O          0.82262000       0.24492000       0.31062000
    28  O          0.17738000       0.75508000       0.68938000
    29  N          0.57122000       0.30752000       0.31392000
    30  N          0.42878000       0.69248000       0.68608000
    31  H          0.62894000       0.29314800       0.35440300
    32  H          0.37106000       0.70685200       0.64559700
    33  N          0.10512000       0.77903000       0.44443000
    34  N          0.89488000       0.22097000       0.55557000
    35  C          0.31733000       0.72623000       0.28163000
    36  C          0.68267000       0.27377000       0.71837000
    37  H          0.35931500       0.74483000       0.18856800
    38  H          0.64068500       0.25517000       0.81143200
    39  H          0.37321900       0.74752700       0.31818300
    40  H          0.62678100       0.25247300       0.68181700
    41  C          0.44133000       0.51773000       0.30873000
    42  C          0.55867000       0.48227000       0.69127000
    43  H          0.49727600       0.54178100       0.34302300
    44  H          0.50272400       0.45821900       0.65697700
    45  H          0.48023200       0.53838100       0.21519500
    46  H          0.51976800       0.46161900       0.78480500
    47  C          0.24123000       0.56463000       0.47833000
    48  C          0.75877000       0.43537000       0.52167000
    49  H          0.29563000       0.58298200       0.51860000
    50  H          0.70437000       0.41701800       0.48140000
    51  H          0.23212400       0.47565100       0.51630400
    52  H          0.76787600       0.52434900       0.48369600
    53  C          0.10433000       0.64393000       0.50483000
    54  C          0.89567000       0.35607000       0.49517000
    55  H          0.04730200       0.61693400       0.47394400
    56  H          0.95269800       0.38306600       0.52605600
    57  H          0.06556100       0.62785500       0.59794300
    58  H          0.93443900       0.37214500       0.40205700
    59  C          0.84533000       0.21103000       0.21203000
    60  C          0.15467000       0.78897000       0.78797000
    61  C          0.98723000       0.17223000       0.14113000
    62  C          0.01277000       0.82777000       0.85887000
    63  C          0.18023000       0.80703000       0.30753000
    64  C          0.81977000       0.19297000       0.69247000
    65  H          0.19161200       0.89546500       0.27400000
    66  H          0.80838800       0.10453500       0.72600000
    67  H          0.12905900       0.79387100       0.26065900
    68  H          0.87094100       0.20612900       0.73934100
    69  C          0.61043000       0.26453000       0.21153000
    70  C          0.38957000       0.73547000       0.78847000
    71  C          0.74093000       0.21363000       0.16433000
    72  C          0.25907000       0.78637000       0.83567000
    73  H          0.76181000       0.17889500       0.09703200
    74  H          0.23819000       0.82110500       0.90296800
    75  C          0.44073000       0.37643000       0.36483000
    76  C          0.55927000       0.62357000       0.63517000
    77  H          0.41787500       0.35284800       0.45870200
    78  H          0.58212500       0.64715200       0.54129800
    79  H          0.37334500       0.35360800       0.34317300
    80  H          0.62665500       0.64639200       0.65682700
    81  C          0.08733000       0.17553000       0.18734000
    82  C          0.91267000       0.82447000       0.81266000
    83  H          0.06563400       0.19785900       0.26283700
    84  H          0.93436600       0.80214100       0.73716300
    85  C          0.02293000       0.13954000       0.02754000
    86  C          0.97707000       0.86046000       0.97246000
    87  H          0.95695400       0.13775300      -0.00548700
    88  H          0.04304600       0.86224700       0.00548700
    89  C          0.21994000       0.14544000       0.12095000
    90  C          0.78006000       0.85456000       0.87905000
    91  H          0.28711000       0.14608800       0.15280600
    92  H          0.71289000       0.85391200       0.84719400
    93  C          0.25254000       0.11464000       0.00795000
    94  C          0.74746000       0.88536000      -0.00795000
    95  H          0.34169000       0.09720300       0.96222500
    96  H          0.65831000       0.90279700       0.03777500
    97  C          0.50903000       0.27444000       0.14674000
    98  C          0.49097000       0.72556000       0.85326000
    99  H          0.43397100       0.23562300       0.21012800
   100  H          0.56602900       0.76437700       0.78987200
   101  H          0.54837800       0.23203600       0.08098800
   102  H          0.45162200       0.76796400       0.91901200
   103  H          0.47984100       0.36183300       0.10758400
   104  H          0.52015900       0.63816700       0.89241600
   105  C          0.15614000       0.10944000       0.96326000
   106  C          0.84386000       0.89056000       0.03674000
   107  H          0.17900200       0.08536000       0.88855400
   108  H          0.82099800       0.91464000       0.11144600
   109  H          0.14240000       0.79830000       0.48030000
   110  H          0.85760000       0.20170000       0.51970000
