data_BENKOY
_symmetry_space_group_name_H-M    'P1'
_symmetry_Int_Tables_number       1
loop_
_symmetry_equiv_pos_site_id
_symmetry_equiv_pos_as_xyz
1 x,y,z
_cell_length_a                   9.40862
_cell_length_b                   16.12613
_cell_length_c                   24.65354
_cell_angle_alpha                71.1602
_cell_angle_beta                 85.50701
_cell_angle_gamma                83.0992
loop_
_atom_site_label
_atom_site_type_symbol
_atom_site_fract_x
_atom_site_fract_y
_atom_site_fract_z
     1  I          0.29262800       0.07636500       0.02495300
     2  I          0.70737200       0.92363500       0.97504700
     3  I          0.09544900       0.37511500       0.81019300
     4  I          0.90455100       0.62488500       0.18980700
     5  I          0.66192900       0.17751500       0.98101400
     6  I          0.33807100       0.82248500       0.01898600
     7  F          0.95239000       0.07404000       0.03353000
     8  F          0.04761000       0.92596000       0.96647000
     9  F          0.29568000       0.23275000       0.90513000
    10  F          0.70432000       0.76725000       0.09487000
    11  F          0.80568000       0.30955000       0.87383000
    12  F          0.19432000       0.69045000       0.12617000
    13  C          0.91091100       0.25857000       0.90495000
    14  C          0.08908900       0.74143000       0.09505000
    15  C          0.12851300       0.15437000       0.97105000
    16  C          0.87148700       0.84563000       0.02895000
    17  C          0.87431100       0.19237000       0.95585000
    18  C          0.12568900       0.80763000       0.04415000
    19  C          0.15871200       0.21887000       0.92115000
    20  C          0.84128800       0.78113000       0.07885000
    21  C          0.05261200       0.27367000       0.88694000
    22  C          0.94738800       0.72633000       0.11306000
    23  C         -0.01208800       0.13958000       0.98685000
    24  C          0.01208800       0.86042000       0.01315000
    25  I          0.95785100       0.24320500       0.10735300
    26  I          0.04214900       0.75679500       0.89264700
    27  I          0.80402200       0.52807500       0.88652300
    28  I          0.19597800       0.47192500       0.11347700
    29  I          0.42516800       0.42985600       0.95047400
    30  I          0.57483200       0.57014400       0.04952600
    31  F          0.14619000       0.53004000       0.88633000
    32  F          0.85381000       0.46996000       0.11367000
    33  F          0.26577000       0.29364000       0.05103000
    34  F          0.73423000       0.70636000       0.94897000
    35  F          0.78213000       0.37805000       0.00563000
    36  F          0.21787000       0.62195000      -0.00563000
    37  C          0.21141100       0.41147000       0.96725000
    38  C          0.78858900       0.58853000       0.03275000
    39  C          0.10521300       0.46427000       0.93264000
    40  C          0.89478700       0.53573000       0.06736000
    41  C          0.96448700       0.45237000       0.94394000
    42  C          0.03551300       0.54763000       0.05606000
    43  C          0.16461100       0.34707000       0.01624000
    44  C          0.83538900       0.65293000       0.98376000
    45  C          0.92268900       0.38767000       0.99335000
    46  C          0.07731100       0.61233000       0.00665000
    47  C          0.02221200       0.33477000       0.03044000
    48  C          0.97778800       0.66523000       0.96956000
    49  I          0.63729800       0.41175500       0.47180300
    50  I          0.36270200       0.58824500       0.52819700
    51  I          0.45196100       0.13390500       0.69397300
    52  I          0.54803900       0.86609500       0.30602700
    53  I          0.01731900       0.33789700       0.51983400
    54  I          0.98268100       0.66210300       0.48016600
    55  F          0.30588000       0.41655000       0.46013000
    56  F          0.69412000       0.58345000       0.53987000
    57  F          0.64498000       0.26215000       0.59583000
    58  F          0.35502000       0.73785000       0.40417000
    59  F          0.16349000       0.20505000       0.62844000
    60  F          0.83651000       0.79495000       0.37156000
    61  C          0.47121300       0.34137000       0.52525000
    62  C          0.52878700       0.65863000       0.47475000
    63  C          0.22871200       0.31128000       0.54385000
    64  C          0.77128800       0.68872000       0.45615000
    65  C          0.50871200       0.27758000       0.57925000
    66  C          0.49128800       0.72242000       0.42075000
    67  C          0.33791300       0.35547000       0.50984000
    68  C          0.66208700       0.64453000       0.49016000
    69  C          0.26801200       0.24857000       0.59575000
    70  C          0.73198800       0.75143000       0.40425000
    71  C          0.40461400       0.23178000       0.61465000
    72  C          0.59538600       0.76822000       0.38535000
    73  I          0.72873900       0.02054500       0.38333300
    74  I          0.27126100       0.97945500       0.61666700
    75  I          0.60081900       0.75241500       0.61092300
    76  I          0.39918100       0.24758500       0.38907700
    77  I          0.12048900       0.92545600       0.45126400
    78  I          0.87951100       0.07454400       0.54873600
    79  F          0.38369000       0.01945000       0.38223000
    80  F          0.61631000       0.98055000       0.61777000
    81  F          0.29458000       0.80035000       0.55593000
    82  F          0.70542000       0.19965000       0.44407000
    83  F          0.76227000       0.87945000       0.50533000
    84  F          0.23773000       0.12055000       0.49467000
    85  C          0.33591100       0.91057000       0.46785000
    86  C          0.66408900       0.08943000       0.53215000
    87  C          0.57571200       0.94878000       0.44185000
    88  C          0.42428800       0.05122000       0.55815000
    89  C          0.43421300       0.96097000       0.43075000
    90  C          0.56578700       0.03903000       0.56925000
    91  C          0.62131100       0.88867000       0.49365000
    92  C          0.37868900       0.11133000       0.50635000
    93  C          0.38581100       0.85037000       0.51855000
    94  C          0.61418900       0.14963000       0.48145000
    95  C          0.53021200       0.83847000       0.53315000
    96  C          0.46978800       0.16153000       0.46685000
    97  O          0.16539000       0.86475000       0.78353000
    98  O          0.83461000       0.13525000       0.21647000
    99  N          0.14811000       0.53196000       0.71034000
   100  N          0.85189000       0.46804000       0.28966000
   101  N          0.15041100       0.76026000       0.71974000
   102  N          0.84958900       0.23974000       0.28026000
   103  H          0.18673500       0.76709100       0.74867000
   104  H          0.81326500       0.23290900       0.25133000
   105  N          0.19071200       0.46587000       0.61604000
   106  N          0.80928800       0.53413000       0.38396000
   107  C          0.00921300       0.89587000       0.70975000
   108  C         -0.00921300       0.10413000       0.29025000
   109  H          0.93571300       0.93549000       0.69016800
   110  H          0.06428700       0.06451000       0.30983200
   111  C          0.07261100       0.91707000       0.75214000
   112  C          0.92738900       0.08293000       0.24786000
   113  C          0.04821100       0.55657000       0.66405000
   114  C          0.95178900       0.44343000       0.33595000
   115  H          0.07612700       0.60880100       0.63429300
   116  H          0.92387300       0.39119900       0.36570700
   117  H          0.95284300       0.57052400       0.67872000
   118  H          0.04715700       0.42947600       0.32128000
   119  C          0.04681200       0.81997000       0.69415000
   120  C          0.95318800       0.18003000       0.30585000
   121  C          0.29191200       0.50677000       0.68985000
   122  C          0.70808800       0.49323000       0.31015000
   123  H          0.35502900       0.48537600       0.72171200
   124  H          0.64497100       0.51462400       0.27828800
   125  H          0.32937900       0.55800600       0.66213600
   126  H          0.67062100       0.44199400       0.33786400
   127  C          0.02861100       0.00537000       0.76015000
   128  C          0.97138900      -0.00537000       0.23985000
   129  C          0.28941400       0.43568000       0.66195000
   130  C          0.71058600       0.56432000       0.33805000
   131  H          0.38465300       0.42210200       0.64691900
   132  H          0.61534700       0.57789800       0.35308100
   133  H          0.25995800       0.38237600       0.69025800
   134  H          0.74004200       0.61762400       0.30974200
   135  C          0.04551300       0.48278000       0.63845000
   136  C          0.95448700       0.51722000       0.36155000
   137  H          0.01623200       0.43018000       0.66746300
   138  H          0.98376800       0.56982000       0.33253700
   139  H          0.97849500       0.50021900       0.60773400
   140  H          0.02150500       0.49978100       0.39226600
   141  C          0.14301400       0.59887000       0.73895000
   142  C          0.85698600       0.40113000       0.26105000
   143  H          0.19373400       0.57385900       0.77421600
   144  H          0.80626600       0.42614100       0.22578400
   145  H          0.04386500       0.61407100       0.74903700
   146  H          0.95613500       0.38592900       0.25096300
   147  C          0.20821300       0.68347000       0.70265000
   148  C          0.79178700       0.31653000       0.29735000
   149  H          0.31119400       0.67470900       0.70634700
   150  H          0.68880600       0.32529100       0.29365300
   151  H          0.18950600       0.69479600       0.66260300
   152  H          0.81049400       0.30520400       0.33739700
   153  C          0.04521300       0.01349000       0.81446000
   154  C          0.95478700       0.98651000       0.18554000
   155  H          0.08285100       0.96537600       0.84387000
   156  H          0.91714900       0.03462400       0.15613000
   157  C          0.97308600       0.07878000       0.71595000
   158  C          0.02691400       0.92122000       0.28405000
   159  H          0.96033800       0.07387800       0.68001100
   160  H          0.03966200       0.92612200       0.31998900
   161  C          0.00501500       0.09351000       0.82357000
   162  C         -0.00501500       0.90649000       0.17643000
   163  H          0.01524500       0.09901600       0.85935900
   164  H          0.98475500       0.90098400       0.14064100
   165  C          0.97068400       0.80421000       0.64786000
   166  C          0.02931600       0.19579000       0.35214000
   167  H          0.03709500       0.80347500       0.61633500
   168  H          0.96290500       0.19652500       0.38366500
   169  H          0.89486800       0.85049500       0.63483900
   170  H          0.10513200       0.14950500       0.36516100
   171  H          0.93121300       0.74867200       0.66261800
   172  H          0.06878700       0.25132800       0.33738200
   173  C          0.94928400       0.16601000       0.77937000
   174  C          0.05071600       0.83399000       0.22063000
   175  H          0.92049300       0.21923400       0.78594900
   176  H          0.07950700       0.78076600       0.21405100
   177  C          0.93728400       0.15878000       0.72617000
   178  C          0.06271600       0.84122000       0.27383000
   179  H          0.90456900       0.20795000       0.69628300
   180  H          0.09543100       0.79205000       0.30371700
   181  H          0.18200000       0.43711000       0.59360000
   182  H          0.81800000       0.56289000       0.40640000
   183  O          0.72349000       0.64615000       0.71984000
   184  O          0.27651000       0.35385000       0.28016000
   185  N          0.63721100       0.75016000       0.78524000
   186  N          0.36278900       0.24984000       0.21476000
   187  H          0.69010200       0.74400300       0.75640000
   188  H          0.30989800       0.25599700       0.24360000
   189  N          0.53299000       0.97906000       0.79574000
   190  N          0.46701000       0.02094000       0.20426000
   191  N          0.51731100       0.04787000       0.88924000
   192  N          0.48268900       0.95213000       0.11076000
   193  C          0.64101200       0.59347000       0.75124000
   194  C          0.35898800       0.40653000       0.24876000
   195  C          0.68151200       0.49868000       0.68795000
   196  C          0.31848800       0.50132000       0.31205000
   197  H          0.71158900       0.54726100       0.65892500
   198  H          0.28841100       0.45273900       0.34107500
   199  C          0.54771300       0.61307000       0.79425000
   200  C          0.45228700       0.38693000       0.20575000
   201  H          0.48289000       0.57295900       0.81337800
   202  H          0.51711000       0.42704100       0.18662200
   203  C          0.65941200       0.00518000       0.81465000
   204  C          0.34058800      -0.00518000       0.18535000
   205  H          0.72601000       0.02509800       0.78216300
   206  H          0.27399000       0.97490200       0.21783700
   207  H          0.70708400       0.95465100       0.84279100
   208  H          0.29291600       0.04534900       0.15720900
   209  C          0.42751100       0.95298000       0.84375000
   210  C          0.57248900       0.04702000       0.15625000
   211  H          0.46789400       0.90114300       0.87298800
   212  H          0.53210600       0.09885700       0.12701200
   213  H          0.34314400       0.93770400       0.83021500
   214  H          0.65685600       0.06229600       0.16978500
   215  C          0.63881200       0.50647000       0.74135000
   216  C          0.36118800       0.49353000       0.25865000
   217  C          0.65451300       0.82678000       0.80285000
   218  C          0.34548700       0.17322000       0.19715000
   219  H          0.75473800       0.83724800       0.79809100
   220  H          0.24526200       0.16275200       0.20190900
   221  H          0.62656300       0.81400100       0.84313200
   222  H          0.37343700       0.18599900       0.15686800
   223  C          0.54761200       0.68898000       0.80945000
   224  C          0.45238800       0.31102000       0.19055000
   225  C          0.61731400       0.07748000       0.84055000
   226  C          0.38268600       0.92252000       0.15945000
   227  H          0.70186200       0.09400800       0.85287000
   228  H          0.29813800       0.90599200       0.14713000
   229  H          0.57289600       0.12873100       0.81190800
   230  H          0.42710400       0.87126900       0.18809200
   231  C          0.59851500       0.43228000       0.78465000
   232  C          0.40148500       0.56772000       0.21535000
   233  H          0.57122900       0.43549000       0.82103800
   234  H          0.42877100       0.56451000       0.17896200
   235  C          0.56431400       0.91077000       0.76795000
   236  C          0.43568600       0.08923000       0.23205000
   237  H          0.61466100       0.93556100       0.73141200
   238  H          0.38533900       0.06443900       0.26858800
   239  H          0.47430100       0.89412400       0.75992300
   240  H          0.52569900       0.10587600       0.24007700
   241  C          0.38481200       0.02649000       0.86935000
   242  C          0.61518800       0.97351000       0.13065000
   243  H          0.34073900       0.07788400       0.84080400
   244  H          0.65926100       0.92211600       0.15919600
   245  H          0.31639900       0.00773300       0.90135400
   246  H          0.68360100       0.99226700       0.09864600
   247  C          0.68021500       0.41941000       0.67697000
   248  C          0.31978500       0.58059000       0.32303000
   249  H          0.70828900       0.41473200       0.64094300
   250  H          0.29171100       0.58526800       0.35905700
   251  C          0.44611500       0.70259000       0.85686000
   252  C          0.55388500       0.29741000       0.14314000
   253  H          0.49936700       0.69678600       0.88974800
   254  H          0.50063300       0.30321400       0.11025200
   255  H          0.37879400       0.65914100       0.86693700
   256  H          0.62120600       0.34085900       0.13306300
   257  H          0.39551600       0.76030200       0.84410000
   258  H          0.60448400       0.23969800       0.15590000
   259  C          0.59921800       0.35231000       0.77317000
   260  C          0.40078200       0.64769000       0.22683000
   261  H          0.57368100       0.30267900       0.80237500
   262  H          0.42631900       0.69732100       0.19762500
   263  C          0.63551700       0.34639000       0.72157000
   264  C          0.36448300       0.65361000       0.27843000
   265  H          0.63145500       0.29332800       0.71454800
   266  H          0.36854500       0.70667200       0.28545200
   267  H          0.50200000       0.09080000       0.90480000
   268  H          0.49800000       0.90920000       0.09520000
