data_BENZBR01
_symmetry_space_group_name_H-M    'P1'
_symmetry_Int_Tables_number       1
loop_
_symmetry_equiv_pos_site_id
_symmetry_equiv_pos_as_xyz
1 x,y,z
_cell_length_a                   8.7212
_cell_length_b                   8.7212
_cell_length_c                   8.7012
_cell_angle_alpha                90.0
_cell_angle_beta                 90.0
_cell_angle_gamma                120.0
loop_
_atom_site_label
_atom_site_type_symbol
_atom_site_fract_x
_atom_site_fract_y
_atom_site_fract_z
     1  Br         0.62602000       0.96352000       0.03832110
     2  Br         0.03648000       0.66250000       0.70498777
     3  Br         0.33750000       0.37398000       0.37165443
     4  Br         0.96352000       0.62602000       0.96167890
     5  Br         0.66250000       0.03648000       0.29501223
     6  Br         0.37398000       0.33750000       0.62834557
     7  C          0.54402700      -0.00000000       0.66670000
     8  C          0.00000000       0.54402700       0.33336667
     9  C          0.45597300       0.45597300       0.00003333
    10  H          0.43512700      -0.00000000       0.66670000
    11  H          0.00000000       0.43512700       0.33336667
    12  H          0.56487300       0.56487300       0.00003333
    13  C          0.54122400       0.84512100       0.68798500
    14  C          0.15487900       0.69610300       0.35465167
    15  C          0.30389700       0.45877600       0.02131833
    16  C          0.84512100       0.54122400       0.31201500
    17  C          0.69610300       0.15487900       0.64534833
    18  C          0.45877600       0.30389700       0.97868167
    19  H          0.43142400       0.73932100       0.70348500
    20  H          0.26067900       0.69210300       0.37015167
    21  H          0.30789700       0.56857600       0.03681833
    22  H          0.73932100       0.43142400       0.29651500
    23  H          0.69210300       0.26067900       0.62984833
    24  H          0.56857600       0.30789700       0.96318167
    25  C          0.70251900       0.83892200       0.68748400
    26  C          0.16107800       0.86359700       0.35415067
    27  C          0.13640300       0.29748100       0.02081733
    28  C          0.83892200       0.70251900       0.31251600
    29  C          0.86359700       0.16107800       0.64584933
    30  C          0.29748100       0.13640300       0.97918267
    31  H          0.70331900       0.73122200       0.70068400
    32  H          0.26877800       0.97209700       0.36735067
    33  H          0.02790300       0.29668100       0.03401733
    34  H          0.73122200       0.70331900       0.29931600
    35  H          0.97209700       0.26877800       0.63264933
    36  H          0.29668100       0.02790300       0.96598267
    37  C          0.85793200      -0.00000000       0.66670000
    38  C          0.00000000       0.85793200       0.33336667
    39  C          0.14206800       0.14206800       0.00003333
    40  H          0.96693200      -0.00000000       0.66670000
    41  H          0.00000000       0.96693200       0.33336667
    42  H          0.03306800       0.03306800       0.00003333
