data_BEPCAE
_symmetry_space_group_name_H-M    'P1'
_symmetry_Int_Tables_number       1
loop_
_symmetry_equiv_pos_site_id
_symmetry_equiv_pos_as_xyz
1 x,y,z
_cell_length_a                   7.473001
_cell_length_b                   7.61032
_cell_length_c                   21.79324
_cell_angle_alpha                94.3772
_cell_angle_beta                 100.0992
_cell_angle_gamma                97.9332
loop_
_atom_site_label
_atom_site_type_symbol
_atom_site_fract_x
_atom_site_fract_y
_atom_site_fract_z
     1  Cl         0.95196500       0.24461500       0.33259200
     2  Cl         0.04803500       0.75538500       0.66740800
     3  O          0.76068150       0.56793130       0.50230500
     4  O          0.23931850       0.43206870       0.49769500
     5  O          0.63922150       0.78245140       0.54888500
     6  O          0.36077850       0.21754860       0.45111500
     7  H          0.61630000       0.70320000       0.57288000
     8  H          0.38370000       0.29680000       0.42712000
     9  C          0.72522180       0.72018180       0.50601600
    10  C          0.27477820       0.27981820       0.49398400
    11  C          0.77670170       0.85073180       0.46257600
    12  C          0.22329830       0.14926820       0.53742400
    13  C          0.85793190       0.79510190       0.41286600
    14  C          0.14206810       0.20489810       0.58713400
    15  H          0.87731100       0.67471800       0.40682200
    16  H          0.12268900       0.32528200       0.59317800
    17  C          0.91016190       0.91592000       0.37236600
    18  C          0.08983810       0.08408000       0.62763400
    19  H          0.96461200       0.87910000       0.33824700
    20  H          0.03538800       0.12090000       0.66175300
    21  C          0.88179180       0.09132190       0.38236600
    22  C          0.11820820       0.90867810       0.61763400
    23  C          0.80033190       0.14942190       0.43102700
    24  C          0.19966810       0.85057810       0.56897300
    25  H          0.78125800       0.26995200       0.43684100
    26  H          0.21874200       0.73004800       0.56315900
    27  C          0.74724190       0.02722190       0.47107600
    28  C          0.25275810       0.97277810       0.52892400
    29  H          0.69036100       0.06414300       0.50455400
    30  H          0.30963900       0.93585700       0.49544600
    31  S          0.47361500       0.54578400       0.74238200
    32  S          0.52638500       0.45421600       0.25761800
    33  S          0.51241400       0.58605400       0.83804200
    34  S          0.48758600       0.41394600       0.16195800
    35  O          0.55709140       0.54155130       0.62496500
    36  O          0.44290860       0.45844870       0.37503500
    37  O          0.71427160       0.34493140       0.58565500
    38  O          0.28572840       0.65506860       0.41434500
    39  H          0.71930000       0.41720000       0.55898000
    40  H          0.28070000       0.58280000       0.44102000
    41  O          0.57587130       0.68528140       0.96036500
    42  O          0.42412870       0.31471860       0.03963500
    43  O          0.36356140       0.76584150       0.01341500
    44  O          0.63643860       0.23415850       0.98658500
    45  H          0.45520000       0.81030000       0.04088000
    46  H          0.54480000       0.18970000       0.95912000
    47  C          0.61716180       0.39936180       0.62625600
    48  C          0.38283820       0.60063820       0.37374400
    49  C          0.58551170       0.27383170       0.67327600
    50  C          0.41448830       0.72616830       0.32672400
    51  C          0.62380180       0.10014180       0.66308600
    52  C          0.37619820       0.89985820       0.33691400
    53  H          0.67112700       0.06690700       0.62690400
    54  H          0.32887300       0.93309300       0.37309600
    55  C          0.59384190       0.97622820       0.70483700
    56  C          0.40615810       0.02377180       0.29516300
    57  H          0.62061600       0.85882500       0.69753500
    58  H          0.37938400       0.14117500       0.30246500
    59  C          0.52402180       0.02539180       0.75766600
    60  C          0.47597820       0.97460820       0.24233400
    61  H          0.50173300       0.94045500       0.78627100
    62  H          0.49826700       0.05954500       0.21372900
    63  C          0.48668170       0.19704180       0.76894600
    64  C          0.51331830       0.80295820       0.23105400
    65  H          0.43992100       0.22895100       0.80536100
    66  H          0.56007900       0.77104900       0.19463900
    67  C          0.51714170       0.32337170       0.72728600
    68  C          0.48285830       0.67662830       0.27271400
    69  C          0.28899170       0.53253170       0.85651600
    70  C          0.71100830       0.46746830       0.14348400
    71  C          0.14196190       0.43617180       0.81315700
    72  C          0.85803810       0.56382820       0.18684300
    73  H          0.15966700       0.39682000       0.77252300
    74  H          0.84033300       0.60318000       0.22747700
    75  C          0.96967810       0.39742000       0.82905700
    76  C          0.03032190       0.60258000       0.17094300
    77  H          0.87123600       0.32919400       0.79952300
    78  H          0.12876400       0.67080600       0.20047700
    79  C          0.94006810       0.45742000       0.88762700
    80  C          0.05993190       0.54258000       0.11237300
    81  H          0.82177300       0.43158200       0.89813300
    82  H          0.17822700       0.56841800       0.10186700
    83  C          0.08491190       0.55521190       0.93061700
    84  C          0.91508810       0.44478810       0.06938300
    85  H          0.06443000       0.59842800       0.97045200
    86  H          0.93557000       0.40157200       0.02954800
    87  C          0.26076180       0.59147170       0.91635600
    88  C          0.73923820       0.40852830       0.08364400
    89  C          0.41580180       0.68593180       0.96522600
    90  C          0.58419820       0.31406820       0.03477400
    91  O          0.63790140       0.91675140       0.09826500
    92  O          0.36209860       0.08324860       0.90173500
    93  N          0.94823160       0.00224150       0.11548500
    94  N          0.05176840      -0.00224150       0.88451500
    95  C          0.78938190       0.92251180       0.08144600
    96  C          0.21061810       0.07748820       0.91855400
    97  H          0.79098900       0.86552700       0.04124800
    98  H          0.20901100       0.13447300       0.95875200
    99  C          0.11942000       0.00402000       0.09209700
   100  C          0.88058000      -0.00402000       0.90790300
   101  H          0.20769400       0.95315700       0.12169400
   102  H          0.79230600       0.04684300       0.87830600
   103  H          0.17030400       0.12701400       0.08757100
   104  H          0.82969600       0.87298600       0.91242900
   105  H          0.09532400       0.93285000       0.05126100
   106  H          0.90467600       0.06715000       0.94873900
   107  C          0.95942000       0.08852000       0.17824700
   108  C          0.04058000       0.91148000       0.82175300
   109  H          0.83507300       0.08793200       0.18697700
   110  H          0.16492700       0.91206800       0.81302300
   111  H          0.02133000       0.21184800       0.18113600
   112  H         -0.02133000       0.78815200       0.81886400
   113  H          0.02928800       0.02377800       0.20889400
   114  H          0.97071200       0.97622200       0.79110600
