data_BEPQEV
_symmetry_space_group_name_H-M    'P1'
_symmetry_Int_Tables_number       1
loop_
_symmetry_equiv_pos_site_id
_symmetry_equiv_pos_as_xyz
1 x,y,z
_cell_length_a                   7.3274
_cell_length_b                   10.8506
_cell_length_c                   12.7276
_cell_angle_alpha                105.0769
_cell_angle_beta                 101.7961
_cell_angle_gamma                100.1709
loop_
_atom_site_label
_atom_site_type_symbol
_atom_site_fract_x
_atom_site_fract_y
_atom_site_fract_z
     1  Cl         0.20438180       0.12927120       0.93293100
     2  Cl         0.79561820       0.87072880       0.06706900
     3  N          0.82644000       0.40883000       0.55742000
     4  N          0.17356000       0.59117000       0.44258000
     5  N          0.74444000       0.43223000       0.45962000
     6  N          0.25556000       0.56777000       0.54038000
     7  H          0.71930000       0.37270000       0.39550000
     8  H          0.28070000       0.62730000       0.60450000
     9  N          0.60044000       0.79113000       0.43322000
    10  N          0.39956000       0.20887000       0.56678000
    11  H          0.57020000       0.86090000       0.42280000
    12  H          0.42980000       0.13910000       0.57720000
    13  H          0.65310000       0.79100000       0.50010000
    14  H          0.34690000       0.20900000       0.49990000
    15  O          0.73934000       0.63792000       0.55462000
    16  O          0.26066000       0.36208000       0.44538000
    17  C         -0.01005000       0.34043000       0.74973000
    18  C          0.01005000       0.65957000       0.25027000
    19  H         -0.02740000       0.42540000       0.76250000
    20  H          0.02740000       0.57460000       0.23750000
    21  C          0.07236000       0.30184000       0.83913000
    22  C          0.92764000       0.69816000       0.16087000
    23  H          0.10940000       0.35980000       0.91210000
    24  H          0.89060000       0.64020000       0.08790000
    25  C          0.09925000       0.17644000       0.81923000
    26  C          0.90075000       0.82356000       0.18077000
    27  C          0.04436000       0.08944000       0.71323000
    28  C          0.95564000       0.91056000       0.28677000
    29  H          0.06420000       0.00510000       0.70070000
    30  H          0.93580000      -0.00510000       0.29930000
    31  C          0.95905000       0.12863000       0.62543000
    32  C          0.04095000       0.87137000       0.37457000
    33  H          0.91770000       0.06880000       0.55320000
    34  H          0.08230000       0.93120000       0.44680000
    35  C          0.93235000       0.25473000       0.64103000
    36  C          0.06765000       0.74527000       0.35897000
    37  C          0.84765000       0.29243000       0.54473000
    38  C          0.15235000       0.70757000       0.45527000
    39  H          0.80850000       0.23110000       0.47310000
    40  H          0.19150000       0.76890000       0.52690000
    41  C          0.70395000       0.54944000       0.46553000
    42  C          0.29605000       0.45056000       0.53447000
    43  C          0.61055000       0.56363000       0.35583000
    44  C          0.38945000       0.43637000       0.64417000
    45  C          0.56575000       0.68373000       0.34633000
    46  C          0.43425000       0.31627000       0.65367000
    47  N          0.48324000       0.69023000       0.24423000
    48  N          0.51676000       0.30977000       0.75577000
    49  C          0.44375000       0.58394000       0.15783000
    50  C          0.55625000       0.41606000       0.84217000
    51  H          0.38590000       0.58710000       0.08670000
    52  H          0.61410000       0.41290000       0.91330000
    53  C          0.48356000       0.46874000       0.16743000
    54  C          0.51644000       0.53126000       0.83257000
    55  H          0.44970000       0.39560000       0.10340000
    56  H          0.55030000       0.60440000       0.89660000
    57  N          0.56964000       0.45873000       0.26633000
    58  N          0.43036000       0.54127000       0.73367000
    59  O          0.49424000       0.02052000       0.36492000
    60  O          0.50576000       0.97948000       0.63508000
    61  O          0.39014000       0.89967000       0.18762000
    62  O          0.60986000       0.10033000       0.81238000
    63  H          0.41310000       0.84120000       0.21420000
    64  H          0.58690000       0.15880000       0.78580000
    65  C          0.35376000       0.11424000       0.22923000
    66  C          0.64624000       0.88576000       0.77077000
    67  H          0.40030000       0.19620000       0.28890000
    68  H          0.59970000       0.80380000       0.71110000
    69  H          0.21570000       0.09250000       0.20720000
    70  H          0.78430000       0.90750000       0.79280000
    71  H          0.40140000       0.12180000       0.16570000
    72  H          0.59860000       0.87820000       0.83430000
    73  C          0.42115000       0.00894000       0.26914000
    74  C          0.57885000      -0.00894000       0.73086000
    75  O          0.93335000       0.65963000       0.76822000
    76  O          0.06665000       0.34037000       0.23178000
    77  H          0.88400000       0.64190000       0.70050000
    78  H          0.11600000       0.35810000       0.29950000
    79  O          0.16954000       0.78013000       0.72882000
    80  O          0.83046000       0.21987000       0.27118000
    81  C          0.20207000       0.77575000       0.91663000
    82  C          0.79793000       0.22425000       0.08337000
    83  H          0.31480000       0.84560000       0.93440000
    84  H          0.68520000       0.15440000       0.06560000
    85  H          0.23860000       0.70040000       0.93240000
    86  H          0.76140000       0.29960000       0.06760000
    87  H          0.11780000       0.80410000       0.96140000
    88  H          0.88220000       0.19590000       0.03860000
    89  C          0.10137000       0.74014000       0.79513000
    90  C          0.89863000       0.25986000       0.20487000
