data_BEQQUN
_symmetry_space_group_name_H-M    'P1'
_symmetry_Int_Tables_number       1
loop_
_symmetry_equiv_pos_site_id
_symmetry_equiv_pos_as_xyz
1 x,y,z
_cell_length_a                   5.81541
_cell_length_b                   18.9333
_cell_length_c                   20.8244
_cell_angle_alpha                68.2766
_cell_angle_beta                 82.7017
_cell_angle_gamma                86.9056
loop_
_atom_site_label
_atom_site_type_symbol
_atom_site_fract_x
_atom_site_fract_y
_atom_site_fract_z
     1  I          0.22142200       0.55697200       0.64394200
     2  I          0.77857800       0.44302800       0.35605800
     3  O          0.60752000       0.27732700       0.56990700
     4  O          0.39248000       0.72267300       0.43009300
     5  H          0.72650000       0.28151700       0.54771600
     6  H          0.27350000       0.71848300       0.45228400
     7  F          0.01755160       0.39631600       0.66852600
     8  F         -0.01755160       0.60368400       0.33147400
     9  F          0.18344180       0.27774600       0.63649600
    10  F          0.81655820       0.72225400       0.36350400
    11  F          0.88171160       0.40763600       0.53148500
    12  F          0.11828840       0.59236400       0.46851500
    13  F          0.71601170       0.52802600       0.56195600
    14  F          0.28398830       0.47197400       0.43804400
    15  C          0.36053000       0.46678900       0.61581800
    16  C          0.63947000       0.53321100       0.38418200
    17  C          0.23103000       0.40149900       0.63371800
    18  C          0.76897000       0.59850100       0.36628200
    19  C          0.31543000       0.34009900       0.61729900
    20  C          0.68457000       0.65990100       0.38270100
    21  C          0.53613000       0.33974900       0.58221800
    22  C          0.46387000       0.66025100       0.41778200
    23  C          0.66533000       0.40530900       0.56442800
    24  C          0.33467000       0.59469100       0.43557200
    25  C          0.57973000       0.46696900       0.58073800
    26  C          0.42027000       0.53303100       0.41926200
    27  O          0.87888000      -0.00285300       0.90728700
    28  O          0.12112000       0.00285300       0.09271300
    29  N          0.94497000       0.65930800       0.69695800
    30  N          0.05503000       0.34069200       0.30304200
    31  N          0.42488000       0.77454800       0.78261700
    32  N          0.57512000       0.22545200       0.21738300
    33  N          0.48508000       0.83906800       0.77934700
    34  N          0.51492000       0.16093200       0.22065300
    35  C          0.60567000       0.73768900       0.75279800
    36  C          0.39433000       0.26231100       0.24720200
    37  C          0.31987000       0.87784900       0.81049800
    38  C          0.68013000       0.12215100       0.18950200
    39  C          0.03157000       0.96146100       0.87368900
    40  C          0.96843000       0.03853900       0.12631100
    41  C          0.95037000       0.06714100       0.91044900
    42  C          0.04963000       0.93285900       0.08955100
    43  H         -0.01060400       0.10490000       0.86286200
    44  H          0.01060400       0.89510000       0.13713800
    45  H          0.08932400       0.05837100       0.93544700
    46  H          0.91067600       0.94162900       0.06455300
    47  C          0.75127000       0.09626100       0.94857900
    48  C          0.24873000       0.90373900       0.05142100
    49  H          0.71369600       0.05789700      -0.00407700
    50  H          0.28630400       0.94210300       0.00407700
    51  H          0.61260100       0.10356600       0.92366500
    52  H          0.38739900       0.89643400       0.07633500
    53  C          0.81037000       0.17136100       0.95393900
    54  C          0.18963000       0.82863900       0.04606100
    55  H          0.95028600       0.16418000       0.97833100
    56  H          0.04971400       0.83582000       0.02166900
    57  H          0.84637800       0.20985900       0.90655100
    58  H          0.15362200       0.79014100       0.09344900
    59  C          0.61137000       0.20043110      -0.00698900
    60  C          0.38863000       0.79956890       0.00698900
    61  H          0.47204000       0.20698800       0.96852200
    62  H          0.52796000       0.79301200       0.03147800
    63  H          0.57581300       0.16143000       0.04015700
    64  H          0.42418700       0.83857000       0.95984300
    65  C          0.66026000       0.27524110      -0.00000900
    66  C          0.33974000       0.72475890       0.00000900
    67  H          0.70615600       0.31360800       0.95315700
    68  H          0.29384400       0.68639200       0.04684300
    69  H          0.79216300       0.26796300       0.02762700
    70  H          0.20783700       0.73203700       0.97237300
    71  C          0.45046000       0.30532120       0.03499100
    72  C          0.54954000       0.69467880       0.96500900
    73  H          0.32422500       0.31744400       0.00479200
    74  H          0.67577500       0.68255600      -0.00479200
    75  H          0.39468400       0.26470400       0.07955100
    76  H          0.60531600       0.73529600       0.92044900
    77  C          0.50155000       0.37548130       0.04922120
    78  C          0.49845000       0.62451870       0.95077880
    79  H          0.57401900       0.41421300       0.00572600
    80  H          0.42598100       0.58578700      -0.00572600
    81  H          0.61431100       0.36196800       0.08383700
    82  H          0.38568900       0.63803200       0.91616300
    83  C          0.28444000       0.40958150       0.07643130
    84  C          0.71556000       0.59041850       0.92356870
    85  H          0.32879500       0.45099000       0.08980500
    86  H          0.67120500       0.54901000       0.91019500
    87  H          0.20408100       0.37018700       0.11704800
    88  H          0.79591900       0.62981300       0.88295200
    89  H          0.18125000       0.42943800       0.03989900
    90  H          0.81875000       0.57056200       0.96010100
    91  C          0.73057000       0.63171100       0.72124100
    92  C          0.26943000       0.36828900       0.27875900
    93  H          0.69620900       0.58416200       0.71917500
    94  H          0.30379100       0.41583800       0.28082500
    95  C          0.55627000       0.66828100       0.74914100
    96  C          0.44373000       0.33171900       0.25085900
    97  H          0.40662400       0.64651700       0.76539200
    98  H          0.59337600       0.35348300       0.23460800
    99  C          0.09787000       0.85044100       0.84298900
   100  C          0.90213000       0.14955900       0.15701100
   101  H          0.04635400       0.80342600       0.84354500
   102  H          0.95364600       0.19657400       0.15645500
   103  C          0.95637000       0.89230100       0.87387900
   104  C          0.04363000       0.10769900       0.12612100
   105  H          0.80613300       0.87413600       0.89554200
   106  H          0.19386700       0.12586400       0.10445800
   107  C         -0.01093000       0.72618100       0.70097900
   108  C          0.01093000       0.27381900       0.29902100
   109  H          0.13968400       0.74694300       0.68376400
   110  H          0.86031600       0.25305700       0.31623600
   111  C          0.82817000       0.76676900       0.72874900
   112  C          0.17183000       0.23323100       0.27125100
   113  H          0.86875300       0.81349700       0.73132700
   114  H          0.13124700       0.18650300       0.26867300
   115  C          0.39157000       0.94707100       0.80932900
   116  C          0.60843000       0.05292900       0.19067100
   117  H          0.53996100       0.96600500       0.78646700
   118  H          0.46003900       0.03399500       0.21353300
   119  C          0.24967000       0.98918900       0.84103900
   120  C          0.75033000       0.01081100       0.15896100
   121  H          0.30105900       0.03623700       0.84042400
   122  H          0.69894100       0.96376300       0.15957600
   123  O          0.15153190       0.93216400       0.29653600
   124  O          0.84846810       0.06783600       0.70346400
   125  N         -0.01738000       0.24958800       0.50066700
   126  N          0.01738000       0.75041200       0.49933300
   127  N          0.50432000       0.13454800       0.41765700
   128  N          0.49568000       0.86545200       0.58234300
   129  N          0.45472000       0.07013800       0.41878700
   130  N          0.54528000       0.92986200       0.58121300
   131  C          0.31933000       0.16985900       0.44704800
   132  C          0.68067000       0.83014100       0.55295200
   133  C          0.63753000       0.03524900       0.38886800
   134  C          0.36247000       0.96475100       0.61113200
   135  C          0.97373000       0.96174100       0.32811800
   136  C          0.02627000       0.03825900       0.67188200
   137  C          0.11773000       0.85950100       0.29252900
   138  C          0.88227000       0.14049900       0.70747100
   139  H         -0.01866800       0.86145300       0.26786600
   140  H          0.01866800       0.13854700       0.73213400
   141  H          0.09027000       0.82028100       0.33987400
   142  H          0.90973000       0.17971900       0.66012600
   143  C          0.33393000       0.84018100       0.25338900
   144  C          0.66607000       0.15981900       0.74661100
   145  H          0.46854000       0.83748600       0.27892000
   146  H          0.53146000       0.16251400       0.72108000
   147  H          0.36330000       0.88086300       0.20687500
   148  H          0.63670000       0.11913700       0.79312500
   149  C          0.30843000       0.76439100       0.24502900
   150  C          0.69157000       0.23560900       0.75497100
   151  H          0.17542000       0.76812700       0.21855500
   152  H          0.82458000       0.23187300       0.78144500
   153  H          0.27210000       0.72460100       0.29169900
   154  H          0.72790000       0.27539900       0.70830100
   155  C          0.52293000       0.73967900       0.20797900
   156  C          0.47707000       0.26032100       0.79202100
   157  H          0.56012000       0.77919300       0.16118400
   158  H          0.43988000       0.22080700       0.83881600
   159  H          0.65621000       0.73517200       0.23448900
   160  H          0.34379000       0.26482800       0.76551100
   161  C          0.48853000       0.66390900       0.20051100
   162  C          0.51147000       0.33609100       0.79948900
   163  H          0.44138000       0.62551100       0.24722800
   164  H          0.55862000       0.37448900       0.75277200
   165  H          0.35970000       0.66962700       0.17205900
   166  H          0.64030000       0.33037300       0.82794100
   167  C          0.70094000       0.63420890       0.16745100
   168  C          0.29906000       0.36579110       0.83254900
   169  H          0.82611000       0.62402500       0.19788100
   170  H          0.17389000       0.37597500       0.80211900
   171  H          0.75611000       0.67397000       0.12226200
   172  H          0.24389000       0.32603000       0.87773800
   173  C          0.65404000       0.56180890       0.15559110
   174  C          0.34596000       0.43819110       0.84440890
   175  H          0.58569000       0.52362600       0.20005900
   176  H          0.41431000       0.47637400       0.79994100
   177  H          0.53843000       0.57322600       0.12198400
   178  H          0.46157000       0.42677400       0.87801600
   179  C          0.86915000       0.52780860       0.12830140
   180  C          0.13085000       0.47219140       0.87169860
   181  H          0.82658000       0.48221000       0.12094300
   182  H          0.17342000       0.51779000       0.87905700
   183  H         -0.01816000       0.51415600       0.16222300
   184  H          0.01816000       0.48584400       0.83777700
   185  H          0.93755000       0.56511900       0.08410900
   186  H          0.06245000       0.43488100       0.91589100
   187  C          0.19093000       0.27986100       0.47246900
   188  C          0.80907000       0.72013900       0.52753100
   189  H          0.22197500       0.32918200       0.47107500
   190  H          0.77802500       0.67081800       0.52892500
   191  C          0.36343000       0.24206100       0.44518900
   192  C          0.63657000       0.75793900       0.55481100
   193  H          0.50967200       0.26517300       0.42546400
   194  H          0.49032800       0.73482700       0.57453600
   195  C          0.85793000       0.06706900       0.36355900
   196  C          0.14207000       0.93293100       0.63644100
   197  H          0.89297700       0.11368000       0.36736500
   198  H          0.10702300       0.88632000       0.63263500
   199  C          0.02353000       0.03100900       0.33321900
   200  C          0.97647000       0.96899100       0.66678100
   201  H          0.17234000       0.05305200       0.31561900
   202  H          0.82766000       0.94694800       0.68438100
   203  C          0.94213000       0.17970100       0.50236900
   204  C          0.05787000       0.82029900       0.49763100
   205  H          0.79403800       0.15809700       0.52231800
   206  H          0.20596200       0.84190300       0.47768200
   207  C          0.10273000       0.13741900       0.47686800
   208  C          0.89727000       0.86258100       0.52313200
   209  H          0.06722300       0.08795100       0.47948900
   210  H          0.93277700       0.91204900       0.52051100
   211  C          0.58973000       0.96612100       0.38437800
   212  C          0.41027000       0.03387900       0.61562200
   213  H          0.44074900       0.94423000       0.40202800
   214  H          0.55925100       0.05577000       0.59797200
   215  C          0.75663000       0.92853100       0.35445800
   216  C          0.24337000       0.07146900       0.64554200
   217  H          0.72314700       0.88108900       0.35200900
   218  H          0.27685300       0.11891100       0.64799100
