data_BEZKIE
_symmetry_space_group_name_H-M    'P1'
_symmetry_Int_Tables_number       1
loop_
_symmetry_equiv_pos_site_id
_symmetry_equiv_pos_as_xyz
1 x,y,z
_cell_length_a                   11.08404
_cell_length_b                   17.27137
_cell_length_c                   14.50775
_cell_angle_alpha                90.0
_cell_angle_beta                 107.14801
_cell_angle_gamma                90.0
loop_
_atom_site_label
_atom_site_type_symbol
_atom_site_fract_x
_atom_site_fract_y
_atom_site_fract_z
     1  S          0.92026400       0.62041200       0.27604300
     2  S          0.57973600       0.12041200       0.22395700
     3  S          0.07973600       0.37958800       0.72395700
     4  S          0.42026400       0.87958800       0.77604300
     5  S          0.31710400       0.62357300       0.41146300
     6  S          0.18289600       0.12357300       0.08853700
     7  S          0.68289600       0.37642700       0.58853700
     8  S          0.81710400       0.87642700       0.91146300
     9  O          0.07386130       0.42257700       0.21301900
    10  O          0.42613870       0.92257700       0.28698100
    11  O          0.92613870       0.57742300       0.78698100
    12  O          0.57386130       0.07742300       0.71301900
    13  H          0.02397200       0.39926300       0.16633700
    14  H          0.47602800       0.89926300       0.33366300
    15  H          0.97602800       0.60073700       0.83366300
    16  H          0.52397200       0.10073700       0.66633700
    17  O          0.95887130       0.41479700       0.51011800
    18  O          0.54112870       0.91479700       0.98988200
    19  O          0.04112870       0.58520300       0.48988200
    20  O          0.45887130       0.08520300       0.01011800
    21  H          0.97717300       0.38952400       0.56187200
    22  H          0.52282700       0.88952400       0.93812800
    23  H          0.02282700       0.61047600       0.43812800
    24  H          0.47717300       0.11047600       0.06187200
    25  N          0.57562130       0.50951800       0.85186100
    26  N          0.92437870       0.00951800       0.64813900
    27  N          0.42437870       0.49048200       0.14813900
    28  N          0.07562130       0.99048200       0.35186100
    29  N          0.78915130       0.49949800       0.17895900
    30  N          0.71084870      -0.00050200       0.32104100
    31  N          0.21084870       0.50050200       0.82104100
    32  N          0.28915130       0.00050200       0.67895900
    33  H          0.76274700       0.45136000       0.17797000
    34  H          0.73725300       0.95136000       0.32203000
    35  H          0.23725300       0.54864000       0.82203000
    36  H          0.26274700       0.04864000       0.67797000
    37  N          0.88424130       0.48172800       0.33995100
    38  N          0.61575870       0.98172800       0.16004900
    39  N          0.11575870       0.51827200       0.66004900
    40  N          0.38424130       0.01827200       0.83995100
    41  H          0.92482500       0.50300100       0.39556800
    42  H          0.57517500       0.00300100       0.10443200
    43  H          0.07517500       0.49699900       0.60443200
    44  H          0.42482500      -0.00300100       0.89556800
    45  N          0.75599130       0.54194800       0.09531100
    46  N          0.74400870       0.04194800       0.40468900
    47  N          0.24400870       0.45805200       0.90468900
    48  N          0.25599130       0.95805200       0.59531100
    49  N          0.22432140       0.48351800       0.37111100
    50  N          0.27567860       0.98351800       0.12888900
    51  N          0.77567860       0.51648200       0.62888900
    52  N          0.72432140       0.01648200       0.87111100
    53  H          0.19004500       0.50579200       0.31491800
    54  H          0.30995500       0.00579200       0.18508200
    55  H          0.80995500       0.49420800       0.68508200
    56  H          0.69004500      -0.00579200       0.81491800
    57  N          0.34652140       0.49776900       0.52696100
    58  N          0.15347860      -0.00223100       0.97303900
    59  N          0.65347860       0.50223100       0.47303900
    60  N          0.84652140       0.00223100       0.02696100
    61  H          0.33056900       0.44862300       0.53438100
    62  H          0.16943100       0.94862300       0.96561900
    63  H          0.66943100       0.55137700       0.46561900
    64  H          0.83056900       0.05137700       0.03438100
    65  N          0.42041140       0.53890900       0.60354100
    66  N          0.07958860       0.03890900       0.89645900
    67  N          0.57958860       0.46109100       0.39645900
    68  N          0.92041140       0.96109100       0.10354100
    69  N          0.78917140       0.36588800       0.26628100
    70  N          0.71082860       0.86588800       0.23371900
    71  N          0.21082860       0.63411200       0.73371900
    72  N          0.28917140       0.13411200       0.76628100
    73  N          0.23890150       0.36465900       0.45454110
    74  N          0.26109850       0.86465900       0.04545890
    75  N          0.76109850       0.63534100       0.54545890
    76  N          0.73890150       0.13534100       0.95454110
    77  C          0.64629150       0.54895100       0.92916110
    78  C          0.85370850       0.04895100       0.57083890
    79  C          0.35370850       0.45104900       0.07083890
    80  C          0.14629150       0.95104900       0.42916110
    81  C          0.68359150       0.50539100       0.02183110
    82  C          0.81640850       0.00539100       0.47816890
    83  C          0.31640850       0.49460900       0.97816890
    84  C          0.18359150      -0.00539100       0.52183110
    85  C          0.86101150       0.52981100       0.26225110
    86  C          0.63898850       0.02981100       0.23774890
    87  C          0.13898850       0.47018900       0.73774890
    88  C          0.36101150       0.97018900       0.76225110
    89  C          0.45713160       0.50075100       0.68383120
    90  C          0.04286840       0.00075100       0.81616880
    91  C          0.54286840       0.49924900       0.31616880
    92  C          0.95713160      -0.00075100       0.18383120
    93  C          0.85328160       0.40354100       0.34463120
    94  C          0.64671840       0.90354100       0.15536880
    95  C          0.14671840       0.59645900       0.65536880
    96  C          0.35328160       0.09645900       0.84463120
    97  C          0.19422160       0.40536100       0.37415120
    98  C          0.30577840       0.90536100       0.12584880
    99  C          0.80577840       0.59463900       0.62584880
   100  C          0.69422160       0.09463900       0.87415120
   101  C          0.89599160       0.36845100       0.43613120
   102  C          0.60400840       0.86845100       0.06386880
   103  C          0.10400840       0.63154900       0.56386880
   104  C          0.39599160       0.13154900       0.93613120
   105  C          0.68063160       0.62585100       0.92329120
   106  C          0.81936840       0.12585100       0.57670880
   107  C          0.31936840       0.37414900       0.07670880
   108  C          0.18063160       0.87414900       0.42329120
   109  H          0.73038400       0.65224600       0.97900300
   110  H          0.76961600       0.15224600       0.52099700
   111  H          0.26961600       0.34775400       0.02099700
   112  H          0.23038400       0.84775400       0.47900300
   113  C          0.53712160       0.54637100       0.76656120
   114  C          0.96287840       0.04637100       0.73343880
   115  C          0.46287840       0.45362900       0.23343880
   116  C          0.03712160       0.95362900       0.26656120
   117  C          0.11508160       0.37346100       0.28763120
   118  C          0.38491840       0.87346100       0.21236880
   119  C          0.88491840       0.62653900       0.71236880
   120  C          0.61508160       0.12653900       0.78763120
   121  C          0.29782160       0.53186100       0.44008120
   122  C          0.20217840       0.03186100       0.05991880
   123  C          0.70217840       0.46813900       0.55991880
   124  C          0.79782160       0.96813900       0.94008120
   125  C          0.63848160       0.42386100       0.02488120
   126  C          0.86151840       0.92386100       0.47511880
   127  C          0.36151840       0.57613900       0.97511880
   128  C          0.13848160       0.07613900       0.52488120
   129  H          0.70936400       0.38803600       0.03268100
   130  H          0.79063600       0.88803600       0.46731900
   131  H          0.29063600       0.61196400       0.96731900
   132  H          0.20936400       0.11196400       0.53268100
   133  H          0.57272800       0.41220000       0.96461300
   134  H          0.92727200       0.91220000       0.53538700
   135  H          0.42727200       0.58780000       0.03538700
   136  H          0.07272800       0.08780000       0.46461300
   137  H          0.60386400       0.41804100       0.07934400
   138  H          0.89613600       0.91804100       0.42065600
   139  H          0.39613600       0.58195900       0.92065600
   140  H          0.10386400       0.08195900       0.57934400
   141  C          0.42527170       0.41825110       0.69809120
   142  C          0.07472830       0.91825110       0.80190880
   143  C          0.57472830       0.58174890       0.30190880
   144  C          0.92527170       0.08174890       0.19809120
   145  H          0.33419500       0.41027800       0.67031700
   146  H          0.16580500       0.91027800       0.82968300
   147  H          0.66580500       0.58972200       0.32968300
   148  H          0.83419500       0.08972200       0.17031700
   149  H          0.44984100       0.40646700       0.76721700
   150  H          0.05015900       0.90646700       0.73278300
   151  H          0.55015900       0.59353300       0.23278300
   152  H          0.94984100       0.09353300       0.26721700
   153  H          0.47090000       0.38399800       0.66605400
   154  H          0.02910000       0.88399800       0.83394600
   155  H          0.52910000       0.61600200       0.33394600
   156  H          0.97090000       0.11600200       0.16605400
   157  C          0.56824180       0.62339110       0.75528130
   158  C          0.93175820       0.12339110       0.74471870
   159  C          0.43175820       0.37660890       0.24471870
   160  C          0.06824180       0.87660890       0.25528130
   161  H          0.53982700       0.64784700       0.69401300
   162  H          0.96017300       0.14784700       0.80598700
   163  H          0.46017300       0.35215300       0.30598700
   164  H          0.03982700       0.85215300       0.19401300
   165  C          0.76515180       0.29022100       0.27465130
   166  C          0.73484820       0.79022100       0.22534870
   167  C          0.23484820       0.70977900       0.72534870
   168  C          0.26515180       0.20977900       0.77465130
   169  H          0.71859200       0.26285800       0.21864900
   170  H          0.78140800       0.76285800       0.28135100
   171  H          0.28140800       0.73714200       0.78135100
   172  H          0.21859200       0.23714200       0.71864900
   173  C          0.87160180       0.29112110       0.44353130
   174  C          0.62839820       0.79112110       0.05646870
   175  C          0.12839820       0.70887890       0.55646870
   176  C          0.37160180       0.20887890       0.94353130
   177  H          0.89956000       0.26549200       0.50405100
   178  H          0.60044000       0.76549200      -0.00405100
   179  H          0.10044000       0.73450800       0.49594900
   180  H          0.39956000       0.23450800       0.00405100
   181  C          0.64117180       0.66354110       0.83482130
   182  C          0.85882820       0.16354110       0.66517870
   183  C          0.35882820       0.33645890       0.16517870
   184  C          0.14117180       0.83645890       0.33482130
   185  H          0.66386200       0.71596500       0.82903200
   186  H          0.83613800       0.21596500       0.67096800
   187  H          0.33613800       0.28403500       0.17096800
   188  H          0.16386200       0.78403500       0.32903200
   189  C          0.80510180       0.25072100       0.36082130
   190  C          0.69489820       0.75072100       0.13917870
   191  C          0.19489820       0.74927900       0.63917870
   192  C          0.30510180       0.24927900       0.86082130
   193  H          0.78774400       0.19707100       0.36388100
   194  H          0.71225600       0.69707100       0.13611900
   195  H          0.21225600       0.80292900       0.63611900
   196  H          0.28774400       0.30292900       0.86388100
   197  C          0.08669170       0.29571110       0.28678140
   198  C          0.41330830       0.79571110       0.21321860
   199  C          0.91330830       0.70428890       0.71321860
   200  C          0.58669170       0.20428890       0.78678140
   201  H          0.03601300       0.27160600       0.22958700
   202  H          0.46398700       0.77160600       0.27041300
   203  H          0.96398700       0.72839400       0.77041300
   204  H          0.53601300       0.22839400       0.72958700
   205  C          0.20753180       0.28916110       0.45285140
   206  C          0.29246820       0.78916110       0.04714860
   207  C          0.79246820       0.71083890       0.54714860
   208  C          0.70753180       0.21083890       0.95285140
   209  H          0.23768300       0.25965100       0.51033300
   210  H          0.26231700       0.75965100       0.98966700
   211  H          0.76231700       0.74034900       0.48966700
   212  H          0.73768300       0.24034900       0.01033300
   213  C          0.13357180       0.25323110       0.37115150
   214  C          0.36642820       0.75323110       0.12884850
   215  C          0.86642820       0.74676890       0.62884850
   216  C          0.63357180       0.24676890       0.87115150
   217  H          0.11461500       0.19966700       0.37234500
   218  H          0.38538500       0.69966700       0.12765500
   219  H          0.88538500       0.80033300       0.62765500
   220  H          0.61461500       0.30033300       0.87234500
   221  S         -0.00812400       0.37326300       0.97852700
   222  S          0.50812400       0.87326300       0.52147300
   223  S          0.00812400       0.62673700       0.02147300
   224  S          0.49187600       0.12673700       0.47852700
   225  O          0.93115880       0.35892800       0.05829900
   226  O          0.56884120       0.85892800       0.44170100
   227  O          0.06884120       0.64107200       0.94170100
   228  O          0.43115880       0.14107200       0.55829900
   229  C          0.00092000       0.28119110       0.92639850
   230  C          0.49908000       0.78119110       0.57360150
   231  C         -0.00092000       0.71880890       0.07360150
   232  C          0.50092000       0.21880890       0.42639850
   233  H          0.05625000       0.24717600       0.97481200
   234  H          0.44375000       0.74717600       0.52518800
   235  H          0.94375000       0.75282400       0.02518800
   236  H          0.55625000       0.25282400       0.47481200
   237  H          0.03520800       0.28720400       0.87178000
   238  H          0.46479200       0.78720400       0.62822000
   239  H          0.96479200       0.71279600       0.12822000
   240  H          0.53520800       0.21279600       0.37178000
   241  H          0.91634100       0.25838700       0.90383200
   242  H          0.58365900       0.75838700       0.59616800
   243  H          0.08365900       0.74161300       0.09616800
   244  H          0.41634100       0.24161300       0.40383200
   245  C          0.87248000       0.41465130       0.88133850
   246  C          0.62752000       0.91465130       0.61866150
   247  C          0.12752000       0.58534870       0.11866150
   248  C          0.37248000       0.08534870       0.38133850
   249  H          0.79552900       0.38340600       0.86841300
   250  H          0.70447100       0.88340600       0.63158700
   251  H          0.20447100       0.61659400       0.13158700
   252  H          0.29552900       0.11659400       0.36841300
   253  H          0.90132100       0.41591100       0.82364600
   254  H          0.59867900       0.91591100       0.67635400
   255  H          0.09867900       0.58408900       0.17635400
   256  H          0.40132100       0.08408900       0.32364600
   257  H          0.85482400       0.46749400       0.89828900
   258  H          0.64517600       0.96749400       0.60171100
   259  H          0.14517600       0.53250600       0.10171100
   260  H          0.35482400       0.03250600       0.39828900
