data_BEZSIJ
_symmetry_space_group_name_H-M    'P1'
_symmetry_Int_Tables_number       1
loop_
_symmetry_equiv_pos_site_id
_symmetry_equiv_pos_as_xyz
1 x,y,z
_cell_length_a                   7.60901
_cell_length_b                   8.7912
_cell_length_c                   11.2712
_cell_angle_alpha                110.6101
_cell_angle_beta                 94.5201
_cell_angle_gamma                103.7901
loop_
_atom_site_label
_atom_site_type_symbol
_atom_site_fract_x
_atom_site_fract_y
_atom_site_fract_z
     1  C          0.80872000       0.43302000       0.17885150
     2  C          0.19128000       0.56698000       0.82114850
     3  N          0.92092000       0.45229180       0.09716140
     4  N          0.07908000       0.54770820       0.90283860
     5  S          0.01730500       0.30274500       0.03318400
     6  S         -0.01730500       0.69725500       0.96681600
     7  N          0.04350190       0.21098180       0.13395140
     8  N          0.95649810       0.78901820       0.86604860
     9  S          0.85613500       0.15851500       0.18915400
    10  S          0.14386500       0.84148500       0.81084600
    11  N          0.75532000       0.31028180       0.22293140
    12  N          0.24468000       0.68971820       0.77706860
    13  N          0.84432000       0.15542000       0.90708850
    14  N          0.15568000       0.84458000       0.09291150
    15  S          0.71437600       0.00079500       0.92227600
    16  S          0.28562400      -0.00079500       0.07772400
    17  N          0.70312000       0.00015190       0.05882150
    18  N          0.29688000      -0.00015190       0.94117850
    19  C          0.72382000       0.57522000       0.22848150
    20  C          0.27618000       0.42478000       0.77151850
    21  C          0.53952000       0.55072000       0.18675180
    22  C          0.46048000       0.44928000       0.81324820
    23  F          0.44220160       0.39535140       0.10162140
    24  F          0.55779840       0.60464860       0.89837860
    25  C          0.45243000       0.67723000       0.22552000
    26  C          0.54757000       0.32277000       0.77448000
    27  H          0.32540000       0.65550000       0.19480000
    28  H          0.67460000       0.34450000       0.80520000
    29  C          0.55763000       0.83632000       0.31062190
    30  C          0.44237000       0.16368000       0.68937810
    31  H          0.50130000       0.92530000       0.33910000
    32  H          0.49870000       0.07470000       0.66090000
    33  C          0.74253000       0.86882000       0.35499180
    34  C          0.25747000       0.13118000       0.64500820
    35  H          0.81320000      -0.02140000       0.41310000
    36  H          0.18680000       0.02140000       0.58690000
    37  C          0.82233000       0.73782000       0.31296170
    38  C          0.17767000       0.26218000       0.68703830
    39  F          0.00222180       0.76607160       0.35691140
    40  F         -0.00222180       0.23392840       0.64308860
    41  C          0.31303000       0.46683000       0.46317170
    42  C          0.68697000       0.53317000       0.53682830
    43  F          0.13202000       0.43472000       0.42985140
    44  F          0.86798000       0.56528000       0.57014860
    45  C          0.42263000       0.63172000       0.52318170
    46  C          0.57737000       0.36828000       0.47681830
    47  F          0.34672000       0.75959170       0.54383120
    48  F          0.65328000       0.24040830       0.45616880
    49  C          0.39173000       0.33472000       0.43945170
    50  C          0.60827000       0.66528000       0.56054830
    51  F          0.28532000       0.17428160       0.38032120
    52  F          0.71468000       0.82571840       0.61967880
