data_BEZSEF
_symmetry_space_group_name_H-M    'P1'
_symmetry_Int_Tables_number       1
loop_
_symmetry_equiv_pos_site_id
_symmetry_equiv_pos_as_xyz
1 x,y,z
_cell_length_a                   6.02901
_cell_length_b                   7.51701
_cell_length_c                   19.3993
_cell_angle_alpha                85.0101
_cell_angle_beta                 84.0801
_cell_angle_gamma                70.7201
loop_
_atom_site_label
_atom_site_type_symbol
_atom_site_fract_x
_atom_site_fract_y
_atom_site_fract_z
     1  C          0.90517000       0.55873000       0.36206100
     2  C          0.09483000       0.44127000       0.63793900
     3  N          0.03463000       0.65382000       0.38436900
     4  N          0.96537000       0.34618000       0.61563100
     5  S          0.89648200       0.83275700       0.43097300
     6  S          0.10351800       0.16724300       0.56902700
     7  N          0.63777000       0.93832000       0.40203900
     8  N          0.36223000       0.06168000       0.59796100
     9  S          0.49339200       0.79067700       0.39736300
    10  S          0.50660800       0.20932300       0.60263700
    11  N          0.67217000       0.59112000       0.36994900
    12  N          0.32783000       0.40888000       0.63005100
    13  N          0.84517000       0.72752000       0.51141900
    14  N          0.15483000       0.27248000       0.48858100
    15  S          0.60423100       0.70249700       0.53639300
    16  S          0.39576900       0.29750300       0.46360700
    17  N          0.42087000       0.72702000       0.48254900
    18  N          0.57913000       0.27298000       0.51745100
    19  C          0.03893000       0.39193000       0.32142100
    20  C          0.96107000       0.60807000       0.67857900
    21  C          0.93666000       0.25323000       0.31409110
    22  C          0.06334000       0.74677000       0.68590890
    23  H          0.78270000       0.26630000       0.33480000
    24  H          0.21730000       0.73370000       0.66520000
    25  C          0.05864000       0.09753000       0.27685110
    26  C          0.94136000       0.90247000       0.72314890
    27  H         -0.01210000       0.00340000       0.27290000
    28  H          0.01210000      -0.00340000       0.72710000
    29  C          0.28453000       0.07493000       0.24465100
    30  C          0.71547000       0.92507000       0.75534900
    31  C          0.38504000       0.21483000       0.25217100
    32  C          0.61496000       0.78517000       0.74782900
    33  H          0.53770000       0.20300000       0.23060000
    34  H          0.46230000       0.79700000       0.76940000
    35  C          0.26553000       0.37043000       0.29050100
    36  C          0.73447000       0.62957000       0.70949900
    37  H          0.33780000       0.46260000       0.29580000
    38  H          0.66220000       0.53740000       0.70420000
    39  C          0.41153000       0.90427000       0.20546100
    40  C          0.58847000       0.09573000       0.79453900
    41  C          0.65234000       0.81157000       0.21007110
    42  C          0.34766000       0.18843000       0.78992890
    43  H          0.73770000       0.86030000       0.23780000
    44  H          0.26230000       0.13970000       0.76220000
    45  C          0.76914000       0.64947000       0.17484120
    46  C          0.23086000       0.35053000       0.82515880
    47  H          0.93280000       0.58770000       0.17870000
    48  H          0.06720000       0.41230000       0.82130000
    49  C          0.64654000       0.57787000       0.13404120
    50  C          0.35346000       0.42213000       0.86595880
    51  H          0.72600000       0.46680000       0.10990000
    52  H          0.27400000       0.53320000       0.89010000
    53  C          0.40874000       0.66807000       0.12848120
    54  C          0.59126000       0.33193000       0.87151880
    55  H          0.32540000       0.61900000       0.10030000
    56  H          0.67460000       0.38100000       0.89970000
    57  C          0.29024000       0.82977000       0.16369110
    58  C          0.70976000       0.17023000       0.83630890
    59  H          0.12630000       0.89050000       0.15960000
    60  H          0.87370000       0.10950000       0.84040000
    61  C          0.26794000       0.09234000       0.98738870
    62  C          0.73206000       0.90766000       0.01261130
    63  F          0.04313000       0.18322000       0.97528100
    64  F          0.95687000       0.81678000       0.02471900
    65  C          0.39405000       0.93166000       0.95352880
    66  C          0.60595000       0.06834000       0.04647120
    67  F          0.28913000       0.86657000       0.90856200
    68  F          0.71087000       0.13343000       0.09143800
    69  C          0.37415000       0.16043000       0.03400130
    70  C          0.62585000       0.83957000       0.96599870
    71  F          0.25183000       0.31612000       0.06700100
    72  F          0.74817000       0.68388000       0.93299900
