data_BIBWAO
_symmetry_space_group_name_H-M    'P1'
_symmetry_Int_Tables_number       1
loop_
_symmetry_equiv_pos_site_id
_symmetry_equiv_pos_as_xyz
1 x,y,z
_cell_length_a                   15.674615
_cell_length_b                   5.16595
_cell_length_c                   17.275614
_cell_angle_alpha                90.0
_cell_angle_beta                 104.0727
_cell_angle_gamma                90.0
loop_
_atom_site_label
_atom_site_type_symbol
_atom_site_fract_x
_atom_site_fract_y
_atom_site_fract_z
     1  I          0.51239200       0.31440400       0.16135200
     2  I          0.48760800       0.31440400       0.83864800
     3  I          0.01239200       0.81440400       0.66135200
     4  I          0.98760800       0.81440400       0.33864800
     5  S          0.20717400       0.23374120       0.65573400
     6  S          0.79282600       0.23374120       0.34426600
     7  S          0.70717400       0.73374120       0.15573400
     8  S          0.29282600       0.73374120       0.84426600
     9  H          0.13301900       0.35380000       0.66241800
    10  H          0.86698100       0.35380000       0.33758200
    11  H          0.63301900       0.85380000       0.16241800
    12  H          0.36698100       0.85380000       0.83758200
    13  O          0.32360110       0.28255000       0.50086100
    14  O          0.67639890       0.28255000       0.49913900
    15  O          0.82360110       0.78255000       0.00086100
    16  O          0.17639890       0.78255000      -0.00086100
    17  H          0.32436000       0.12880000       0.46020000
    18  H          0.67564000       0.12880000       0.53980000
    19  H          0.82436000       0.62880000       0.96020000
    20  H          0.17564000       0.62880000       0.03980000
    21  O          0.18179130       0.30278000       0.43800120
    22  O          0.81820870       0.30278000       0.56199880
    23  O          0.68179130       0.80278000       0.93800120
    24  O          0.31820870       0.80278000       0.06199880
    25  N          0.14645130       0.69175000       0.52248120
    26  N          0.85354870       0.69175000       0.47751880
    27  N          0.64645130       0.19175000       0.02248120
    28  N          0.35354870       0.19175000       0.97751880
    29  H          0.13937900       0.81606000       0.55771800
    30  H          0.86062100       0.81606000       0.44228200
    31  H          0.63937900       0.31606000       0.05771800
    32  H          0.36062100       0.31606000       0.94228200
    33  H          0.10907400       0.55801400       0.52394600
    34  H          0.89092600       0.55801400       0.47605400
    35  H          0.60907400       0.05801400       0.02394600
    36  H          0.39092600       0.05801400       0.97605400
    37  H          0.13444000       0.75963300       0.47239300
    38  H          0.86556000       0.75963300       0.52760700
    39  H          0.63444000       0.25963300       0.97239300
    40  H          0.36556000       0.25963300       0.02760700
    41  C          0.24621150       0.37725000       0.48783120
    42  C          0.75378850       0.37725000       0.51216880
    43  C          0.74621150       0.87725000       0.98783120
    44  C          0.25378850       0.87725000       0.01216880
    45  C          0.23858140       0.59624000       0.54435120
    46  C          0.76141860       0.59624000       0.45564880
    47  C          0.73858140       0.09624000       0.04435120
    48  C          0.26141860       0.09624000       0.95564880
    49  H          0.27815500       0.74014200       0.53620500
    50  H          0.72184500       0.74014200       0.46379500
    51  H          0.77815500       0.24014200       0.03620500
    52  H          0.22184500       0.24014200       0.96379500
    53  C          0.26582150       0.51274000       0.63161120
    54  C          0.73417850       0.51274000       0.36838880
    55  C          0.76582150       0.01274000       0.13161120
    56  C          0.23417850       0.01274000       0.86838880
    57  H          0.25650400       0.65972300       0.66537600
    58  H          0.74349600       0.65972300       0.33462400
    59  H          0.75650400       0.15972300       0.16537600
    60  H          0.24349600       0.15972300       0.83462400
    61  H          0.32952600       0.47305100       0.64536400
    62  H          0.67047400       0.47305100       0.35463600
    63  H          0.82952600      -0.02694900       0.14536400
    64  H          0.17047400      -0.02694900       0.85463600
    65  S          0.54453500       0.91013170       0.36971600
    66  S          0.45546500       0.91013170       0.63028400
    67  S          0.04453500       0.41013170       0.86971600
    68  S          0.95546500       0.41013170       0.13028400
    69  H          0.59830000       0.02710000       0.33230000
    70  H          0.40170000       0.02710000       0.66770000
    71  H          0.09830000       0.52710000       0.83230000
    72  H          0.90170000       0.52710000       0.16770000
    73  O          0.34132000       0.90045000       0.42375130
    74  O          0.65868000       0.90045000       0.57624870
    75  O          0.84132000       0.40045000       0.92375130
    76  O          0.15868000       0.40045000       0.07624870
    77  O          0.30569110       0.10733000       0.30640100
    78  O          0.69430890       0.10733000       0.69359900
    79  O          0.80569110       0.60733000       0.80640100
    80  O          0.19430890       0.60733000       0.19359900
    81  N          0.37292120       0.75574000       0.22991100
    82  N          0.62707880       0.75574000       0.77008900
    83  N          0.87292120       0.25574000       0.72991100
    84  N          0.12707880       0.25574000       0.27008900
    85  H          0.40998700       0.64832900       0.21203600
    86  H          0.59001300       0.64832900       0.78796400
    87  H          0.90998700       0.14832900       0.71203600
    88  H          0.09001300       0.14832900       0.28796400
    89  H          0.38927100       0.92299500       0.22538100
    90  H          0.61072900       0.92299500       0.77461900
    91  H          0.88927100       0.42299500       0.72538100
    92  H          0.11072900       0.42299500       0.27461900
    93  H          0.31698500       0.73183900       0.20024200
    94  H          0.68301500       0.73183900       0.79975800
    95  H          0.81698500       0.23183900       0.70024200
    96  H          0.18301500       0.23183900       0.29975800
    97  C          0.33709150       0.92484000       0.34970130
    98  C          0.66290850       0.92484000       0.65029870
    99  C          0.83709150       0.42484000       0.84970130
   100  C          0.16290850       0.42484000       0.15029870
   101  C          0.37702140       0.69704000       0.31496120
   102  C          0.62297860       0.69704000       0.68503880
   103  C          0.87702140       0.19704000       0.81496120
   104  C          0.12297860       0.19704000       0.18503880
   105  H          0.33994100       0.54080100       0.31692000
   106  H          0.66005900       0.54080100       0.68308000
   107  H          0.83994100       0.04080100       0.81692000
   108  H          0.16005900       0.04080100       0.18308000
   109  C          0.47036170       0.63795000       0.36158140
   110  C          0.52963830       0.63795000       0.63841860
   111  C          0.97036170       0.13795000       0.86158140
   112  C          0.02963830       0.13795000       0.13841860
   113  H          0.49357200       0.49298100       0.33523700
   114  H          0.50642800       0.49298100       0.66476300
   115  H         -0.00642800      -0.00701900       0.83523700
   116  H          0.00642800      -0.00701900       0.16476300
   117  H          0.46895900       0.58019000       0.41591000
   118  H          0.53104100       0.58019000       0.58409000
   119  H          0.96895900       0.08019000       0.91591000
   120  H          0.03104100       0.08019000       0.08409000
   121  O         -0.00000000       0.31479000       0.50000000
   122  O          0.50000000       0.81479000      -0.00000000
   123  H          0.00230000       0.19280000       0.53420000
   124  H         -0.00230000       0.19280000       0.46580000
   125  H          0.50230000       0.69280000       0.03420000
   126  H          0.49770000       0.69280000       0.96580000
