data_BICGED
_symmetry_space_group_name_H-M    'P1'
_symmetry_Int_Tables_number       1
loop_
_symmetry_equiv_pos_site_id
_symmetry_equiv_pos_as_xyz
1 x,y,z
_cell_length_a                   12.0703
_cell_length_b                   5.974513
_cell_length_c                   12.6473
_cell_angle_alpha                90.0
_cell_angle_beta                 93.2964
_cell_angle_gamma                90.0
loop_
_atom_site_label
_atom_site_type_symbol
_atom_site_fract_x
_atom_site_fract_y
_atom_site_fract_z
     1  S          0.41701700       0.61874190       0.86863700
     2  S          0.58298300       0.11874190       0.13136300
     3  F          0.22480190       0.82394000       0.88595150
     4  F          0.77519810       0.32394000       0.11404850
     5  F          0.21641170       0.48144000       0.83052150
     6  F          0.78358830      -0.01856000       0.16947850
     7  N          0.38604000       0.57509000      -0.01057000
     8  N          0.61396000       0.07509000       0.01057000
     9  N          0.28912000       0.76795000       0.48752000
    10  N          0.71088000       0.26795000       0.51248000
    11  O          0.31877170       0.59934000       0.65227150
    12  O          0.68122830       0.09934000       0.34772850
    13  O          0.47563000       0.82987000       0.85603000
    14  O          0.52437000       0.32987000       0.14397000
    15  C          0.25453000       0.76435000       0.70492000
    16  C          0.74547000       0.26435000       0.29508000
    17  C          0.27023000       0.67806000       0.81942000
    18  C          0.72977000       0.17806000       0.18058000
    19  C          0.30143000       0.00016000       0.69513000
    20  C          0.69857000       0.50016000       0.30487000
    21  H          0.38090000      -0.00660000       0.69760000
    22  H          0.61910000       0.49340000       0.30240000
    23  H          0.27820000       0.09070000       0.75250000
    24  H          0.72180000       0.59070000       0.24750000
    25  H          0.27450000       0.06470000       0.62900000
    26  H          0.72550000       0.56470000       0.37100000
    27  C          0.13073000       0.74996000       0.67142000
    28  C          0.86927000       0.24996000       0.32858000
    29  C          0.08593000       0.56256000       0.62192000
    30  C          0.91407000       0.06256000       0.37808000
    31  H          0.13170000       0.44270000       0.60700000
    32  H          0.86830000       0.94270000       0.39300000
    33  C          0.97277000       0.55087000       0.59413000
    34  C          0.02723000       0.05087000       0.40587000
    35  H          0.94320000       0.42460000       0.55990000
    36  H          0.05680000       0.92460000       0.44010000
    37  C          0.90507000       0.72758000       0.61743000
    38  C          0.09493000       0.22758000       0.38257000
    39  H          0.82950000       0.72120000       0.59850000
    40  H          0.17050000       0.22120000       0.40150000
    41  C          0.94867000       0.91208000       0.66824000
    42  C          0.05133000       0.41208000       0.33176000
    43  H          0.90240000       0.02950000       0.68510000
    44  H          0.09760000       0.52950000       0.31490000
    45  C          0.06073000       0.92507000       0.69453000
    46  C          0.93927000       0.42507000       0.30547000
    47  H          0.08980000       0.05250000       0.72800000
    48  H          0.91020000       0.55250000       0.27200000
    49  C          0.33262000       0.60596000       0.54592000
    50  C          0.66738000       0.10596000       0.45408000
    51  C          0.39423000       0.42986000       0.50763000
    52  C          0.60577000       0.92986000       0.49237000
    53  H          0.42390000       0.31960000       0.55280000
    54  H          0.57610000       0.81960000       0.44720000
    55  C          0.40963000       0.42427000       0.40153000
    56  C          0.59037000       0.92427000       0.59847000
    57  H          0.44910000       0.30790000       0.37250000
    58  H          0.55090000       0.80790000       0.62750000
    59  C          0.36553000       0.59389000       0.33773000
    60  C          0.63447000       0.09389000       0.66227000
    61  H          0.37550000       0.59520000       0.26540000
    62  H          0.62450000       0.09520000       0.73460000
    63  C          0.30733000       0.75828000       0.38353000
    64  C          0.69267000       0.25828000       0.61647000
    65  H          0.27800000       0.87190000       0.34020000
    66  H          0.72200000       0.37190000       0.65980000
    67  H          0.43750000       0.50510000       0.02440000
    68  H          0.56250000       0.00510000       0.97560000
    69  H          0.36350000       0.68811000       0.01640000
    70  H          0.63650000       0.18811000       0.98360000
    71  O          0.21905000       0.79761000       0.12733000
    72  O          0.78095000       0.29761000       0.87267000
    73  C          0.21947000       0.17861500       0.09336000
    74  C          0.78053000       0.67861500       0.90664000
    75  H          0.29800000       0.16660000       0.10880000
    76  H          0.70200000       0.66660000       0.89120000
    77  H          0.18930000       0.28930000       0.13860000
    78  H          0.81070000       0.78930000       0.86140000
    79  H          0.20540000       0.22170000       0.02070000
    80  H          0.79460000       0.72170000       0.97930000
    81  C          0.16754000       0.96439000       0.11133000
    82  C          0.83246000       0.46439000       0.88867000
    83  C          0.04615000       0.96028500       0.10635000
    84  C          0.95385000       0.46028500       0.89365000
    85  H          0.02090000       0.81040000       0.11790000
    86  H          0.97910000       0.31040000       0.88210000
    87  H          0.01810000       0.01090000       0.03790000
    88  H          0.98190000       0.51090000       0.96210000
    89  H          0.01960000       0.05710000       0.16000000
    90  H          0.98040000       0.55710000       0.84000000
