data_BICMIM
_symmetry_space_group_name_H-M    'P1'
_symmetry_Int_Tables_number       1
loop_
_symmetry_equiv_pos_site_id
_symmetry_equiv_pos_as_xyz
1 x,y,z
_cell_length_a                   7.342015
_cell_length_b                   8.356017
_cell_length_c                   10.3782
_cell_angle_alpha                93.363
_cell_angle_beta                 108.643
_cell_angle_gamma                112.153
loop_
_atom_site_label
_atom_site_type_symbol
_atom_site_fract_x
_atom_site_fract_y
_atom_site_fract_z
     1  O          0.70715000       0.17465000      -0.00664000
     2  O          0.29285000       0.82535000       0.00664000
     3  H          0.73330000       0.14440000       0.07180000
     4  H          0.26670000       0.85560000       0.92820000
     5  H          0.67116000       0.11813000       0.91889000
     6  H          0.32884000       0.88187000       0.08111000
     7  C          0.03797000       0.80296000       0.66255000
     8  C          0.96203000       0.19704000       0.33745000
     9  H          0.95440000       0.72520000       0.70800000
    10  H          0.04560000       0.27480000       0.29200000
    11  H         -0.03260000       0.75800000       0.56300000
    12  H          0.03260000       0.24200000       0.43700000
    13  C          0.24507000       0.63906000       0.68515000
    14  C          0.75493000       0.36094000       0.31485000
    15  H          0.19020000       0.59080000       0.58640000
    16  H          0.80980000       0.40920000       0.41360000
    17  H          0.15640000       0.55850000       0.72640000
    18  H          0.84360000       0.44150000       0.27360000
    19  C          0.46887000       0.65927000       0.75045000
    20  C          0.53113000       0.34073000       0.24955000
    21  H          0.47620000       0.54830000       0.72670000
    22  H          0.52380000       0.45170000       0.27330000
    23  H          0.55960000       0.74790000       0.71540000
    24  H          0.44040000       0.25210000       0.28460000
    25  C          0.74977000       0.72557000       0.96645000
    26  C          0.25023000       0.27443000       0.03355000
    27  H          0.84710000       0.81410000       0.93520000
    28  H          0.15290000       0.18590000       0.06480000
    29  H          0.75570000       0.61380000       0.94370000
    30  H          0.24430000       0.38620000       0.05630000
    31  C          0.81318000       0.77597000       0.11865000
    32  C          0.18682000       0.22403000       0.88135000
    33  H          0.70120000       0.70140000       0.14700000
    34  H          0.29880000       0.29860000       0.85300000
    35  H          0.93940000       0.75850000       0.16570000
    36  H          0.06060000       0.24150000       0.83430000
    37  C          0.94767000       0.01797000       0.30405000
    38  C          0.05233000      -0.01797000       0.69595000
    39  H          0.08790000       0.01970000       0.33890000
    40  H          0.91210000      -0.01970000       0.66110000
    41  H          0.86270000       0.93950000       0.34840000
    42  H          0.13730000       0.06050000       0.65160000
    43  O          0.24164000       0.80474000       0.70673000
    44  O          0.75836000       0.19526000       0.29327000
    45  O          0.53884000       0.71004000       0.89663000
    46  O          0.46116000       0.28996000       0.10337000
    47  O          0.85334000       0.95464000       0.15663000
    48  O          0.14666000       0.04536000       0.84337000
    49  B          0.62738000       0.23507000       0.65235000
    50  B          0.37262000       0.76493000       0.34765000
    51  F          0.72748000       0.20007000       0.57485000
    52  F          0.27252000       0.79993000       0.42515000
    53  F          0.75906000       0.39074000       0.74304000
    54  F          0.24094000       0.60926000       0.25696000
    55  F          0.44125000       0.23906000       0.57334000
    56  F          0.55875000       0.76094000       0.42666000
    57  F          0.59015000       0.09954000       0.73723000
    58  F          0.40985000       0.90046000       0.26277000
