data_BIDJAD
_symmetry_space_group_name_H-M    'P1'
_symmetry_Int_Tables_number       1
loop_
_symmetry_equiv_pos_site_id
_symmetry_equiv_pos_as_xyz
1 x,y,z
_cell_length_a                   4.37342
_cell_length_b                   6.12013
_cell_length_c                   13.96314
_cell_angle_alpha                88.1243
_cell_angle_beta                 88.7173
_cell_angle_gamma                82.2913
loop_
_atom_site_label
_atom_site_type_symbol
_atom_site_fract_x
_atom_site_fract_y
_atom_site_fract_z
     1  I          0.73684800       0.67979500       0.68835200
     2  I          0.26315200       0.32020500       0.31164800
     3  F          0.08439000       0.11186000       0.68323000
     4  F          0.91561000       0.88814000       0.31677000
     5  F          0.70479000       0.65116000       0.46103000
     6  F          0.29521000       0.34884000       0.53897000
     7  C          0.88931300       0.87281000       0.57574000
     8  C          0.11068700       0.12719000       0.42426000
     9  C          0.03981400       0.05501000       0.59274000
    10  C          0.96018600       0.94499000       0.40726000
    11  C          0.85151400       0.82259000       0.48175000
    12  C          0.14848600       0.17741000       0.51825000
    13  N          0.34861200       0.27389000       0.89734000
    14  N          0.65138800       0.72611000       0.10266000
    15  C          0.17351400       0.13461000       0.94885000
    16  C          0.82648600       0.86539000       0.05115000
    17  C          0.10601500       0.94449000       0.90715000
    18  C          0.89398500       0.05551000       0.09285000
    19  H          0.17954200       0.90830300       0.84430000
    20  H          0.82045800       0.09169700       0.15570000
    21  C          0.92898500       0.80819000       0.95885000
    22  C          0.07101500       0.19181000       0.04115000
    23  H          0.87825500       0.67758800       0.93171700
    24  H          0.12174500       0.32241200       0.06828300
    25  C          0.49501600       0.39011100       0.85405000
    26  C          0.50498400       0.60988900       0.14595000
