data_BIFJAD
_symmetry_space_group_name_H-M    'P1'
_symmetry_Int_Tables_number       1
loop_
_symmetry_equiv_pos_site_id
_symmetry_equiv_pos_as_xyz
1 x,y,z
_cell_length_a                   8.26932
_cell_length_b                   13.06334
_cell_length_c                   14.25594
_cell_angle_alpha                116.3333
_cell_angle_beta                 91.5032
_cell_angle_gamma                105.9553
loop_
_atom_site_label
_atom_site_type_symbol
_atom_site_fract_x
_atom_site_fract_y
_atom_site_fract_z
     1  Cl         0.28805500       0.51466400       0.98213300
     2  Cl         0.71194500       0.48533600       0.01786700
     3  Cl         0.40043500       0.38416400       0.18826300
     4  Cl         0.59956500       0.61583600       0.81173700
     5  F          0.83244110       0.70294700       0.51353700
     6  F          0.16755890       0.29705300       0.48646300
     7  O          0.85901110       0.45560700       0.61545700
     8  O          0.14098890       0.54439300       0.38454300
     9  O          0.12456110       0.02659800       0.41394700
    10  O          0.87543890       0.97340200       0.58605300
    11  H          0.07130000      -0.01420000       0.34661800
    12  H          0.92870000       0.01420000       0.65338200
    13  O          0.35177120       0.05711100       0.33690800
    14  O          0.64822880       0.94288900       0.66309200
    15  N          0.56370130       0.16422900       0.52923800
    16  N          0.43629870       0.83577100       0.47076200
    17  C          0.66330160       0.22121100       0.62456100
    18  C          0.33669840       0.77878900       0.37543900
    19  C          0.59553180       0.24819120       0.71849100
    20  C          0.40446820       0.75180880       0.28150900
    21  H          0.66910000       0.29090000       0.78540000
    22  H          0.33090000       0.70910000       0.21460000
    23  C          0.42074180       0.21204130       0.71277110
    24  C          0.57925820       0.78795870       0.28722890
    25  H          0.37260000       0.22960000       0.77570000
    26  H          0.62740000       0.77040000       0.22430000
    27  C          0.31605170       0.14979120       0.61403100
    28  C          0.68394830       0.85020880       0.38596900
    29  H          0.19540000       0.12180000       0.60750000
    30  H          0.80460000       0.87820000       0.39250000
    31  C          0.39374150       0.12970100       0.52504100
    32  C          0.60625850       0.87029900       0.47495900
    33  C          0.85360160       0.25086110       0.62476110
    34  C          0.14639840       0.74913890       0.37523890
    35  H          0.89170000       0.18900000       0.63240000
    36  H          0.10830000       0.81100000       0.36760000
    37  H          0.87540000       0.24570000       0.55510000
    38  H          0.12460000       0.75430000       0.44490000
    39  C          0.96018150       0.37365110       0.71121100
    40  C          0.03981850       0.62634890       0.28878900
    41  C          0.96187150       0.47758110       0.70385900
    42  C          0.03812850       0.52241890       0.29614100
    43  C          0.06293160       0.59123110       0.78052100
    44  C          0.93706840       0.40876890       0.21947900
    45  H          0.06350000       0.66060000       0.77410000
    46  H          0.93650000       0.33940000       0.22590000
    47  C          0.16363170       0.60308120       0.86705100
    48  C          0.83636830       0.39691880       0.13294900
    49  H          0.23320000       0.68040000       0.92000000
    50  H          0.76680000       0.31960000       0.08000000
    51  C          0.16083170       0.50109130       0.87470110
    52  C          0.83916830       0.49890870       0.12529890
    53  C          0.06130170       0.38679120       0.79757110
    54  C          0.93869830       0.61320880       0.20242890
    55  H          0.06260000       0.31770000       0.80410000
    56  H          0.93740000       0.68230000       0.19590000
    57  C          0.86365150       0.55496100       0.59773900
    58  C          0.13634850       0.44503900       0.40226100
    59  H         -0.01900000       0.59430000       0.59200000
    60  H          0.01900000       0.40570000       0.40800000
    61  H          0.82770000       0.61510000       0.65760000
    62  H          0.17230000       0.38490000       0.34240000
    63  C          0.74379140       0.50776100       0.49607900
    64  C          0.25620860       0.49223900       0.50392100
    65  C          0.73381160       0.58562110       0.45620100
    66  C          0.26618840       0.41437890       0.54379900
    67  C          0.63093170       0.55163120       0.36327110
    68  C          0.36906830       0.44836880       0.63672890
    69  H          0.62840000       0.60790000       0.33850000
    70  H          0.37160000       0.39210000       0.66150000
    71  C          0.53102160       0.43164120       0.30726100
    72  C          0.46897840       0.56835880       0.69273900
    73  C          0.53278160       0.35001110       0.34368100
    74  C          0.46721840       0.64998890       0.65631900
    75  H          0.46190000       0.26840000       0.30470000
    76  H          0.53810000       0.73160000       0.69530000
    77  C          0.63914150       0.38828110       0.43788100
    78  C          0.36085850       0.61171890       0.56211900
    79  H          0.64060000       0.33220000       0.46310000
    80  H          0.35940000       0.66780000       0.53690000
    81  C          0.29022150       0.06791100       0.41563100
    82  C          0.70977850       0.93208900       0.58436900
    83  S          0.07034400       0.88781700       0.13334200
    84  S          0.92965600       0.11218300       0.86665800
    85  O          0.95879890       0.89855200       0.21840700
    86  O          0.04120110       0.10144800       0.78159300
    87  C          0.92378820       0.80060870       0.01098110
    88  C          0.07621180       0.19939130      -0.01098110
    89  H          0.87130000       0.71850000       0.00070000
    90  H          0.12870000       0.28150000      -0.00070000
    91  H         -0.01530000       0.79780000       0.95230000
    92  H          0.01530000       0.20220000       0.04770000
    93  H          0.83480000       0.83750000       0.01270000
    94  H          0.16520000       0.16250000       0.98730000
    95  C          0.12843180       0.02922130       0.13225110
    96  C          0.87156820       0.97077870       0.86774890
    97  H          0.02550000       0.05050000       0.12550000
    98  H          0.97450000       0.94950000       0.87450000
    99  H          0.18690000       0.02340000       0.07200000
   100  H          0.81310000       0.97660000       0.92800000
   101  H          0.20490000       0.09150000       0.19870000
   102  H          0.79510000       0.90850000       0.80130000
   103  S          0.63012400       0.08270300       0.16941300
   104  S          0.36987600       0.91729700       0.83058700
   105  O          0.75962130       0.09556900       0.09956800
   106  O          0.24037870       0.90443100       0.90043200
   107  C          0.52595190       0.92483870       0.11788120
   108  C          0.47404810       0.07516130       0.88211880
   109  H          0.46110000       0.89210000       0.04670000
   110  H          0.53890000       0.10790000       0.95330000
   111  H          0.44800000       0.91110000       0.16480000
   112  H          0.55200000       0.08890000       0.83520000
   113  H          0.61150000       0.88460000       0.11380000
   114  H          0.38850000       0.11540000       0.88620000
   115  C          0.74549180       0.10970140       0.29022110
   116  C          0.25450820       0.89029860       0.70977890
   117  H          0.81250000       0.05440000       0.27420000
   118  H          0.18750000       0.94560000       0.72580000
   119  H          0.66500000       0.09640000       0.33610000
   120  H          0.33500000       0.90360000       0.66390000
   121  H          0.82230000       0.19310000       0.32670000
   122  H          0.17770000       0.80690000       0.67330000
