data_BIFVAP
_symmetry_space_group_name_H-M    'P1'
_symmetry_Int_Tables_number       1
loop_
_symmetry_equiv_pos_site_id
_symmetry_equiv_pos_as_xyz
1 x,y,z
_cell_length_a                   9.91765
_cell_length_b                   13.82697
_cell_length_c                   14.45347
_cell_angle_alpha                90.0
_cell_angle_beta                 102.0993
_cell_angle_gamma                90.0
loop_
_atom_site_label
_atom_site_type_symbol
_atom_site_fract_x
_atom_site_fract_y
_atom_site_fract_z
     1  Cl         0.27111100       0.31760700       0.94930400
     2  Cl         0.72888900       0.81760700       0.05069600
     3  Cl         0.16594120       0.60010900       0.68744400
     4  Cl         0.83405880       0.10010900       0.31255600
     5  O          0.33133000       0.47318190       0.08325160
     6  O          0.66867000       0.97318190       0.91674840
     7  C          0.22334000       0.46633000       0.82727000
     8  C          0.77666000       0.96633000       0.17273000
     9  H          0.19940000       0.41880000       0.77910000
    10  H          0.80060000       0.91880000       0.22090000
    11  C          0.56834000       0.60313000       0.17993000
    12  C          0.43166000       0.10313000       0.82007000
    13  H          0.59580000       0.56950000       0.12620000
    14  H          0.40420000       0.06950000       0.87380000
    15  H          0.52770000       0.66670000       0.15830000
    16  H          0.47230000       0.16670000       0.84170000
    17  C          0.26283000       0.43973000       0.92097000
    18  C          0.73717000       0.93973000       0.07903000
    19  C          0.29444000       0.50883000      -0.00632000
    20  C          0.70556000       0.00883000       0.00632000
    21  C          0.08304000       0.45613000       0.16083000
    22  C          0.91696000       0.95613000       0.83917000
    23  H          0.09330000       0.41370000       0.10660000
    24  H          0.90670000       0.91370000       0.89340000
    25  N          0.62523000       0.62202000       0.34792000
    26  N          0.37477000       0.12202000       0.65208000
    27  H          0.63060000       0.68470000       0.36960000
    28  H          0.36940000       0.18470000       0.63040000
    29  H          0.67070000       0.58270000       0.39580000
    30  H          0.32930000       0.08270000       0.60420000
    31  C          0.25424000       0.63403000       0.87497000
    32  C          0.74576000       0.13403000       0.12503000
    33  H          0.25200000       0.70070000       0.85880000
    34  H          0.74800000       0.20070000       0.14120000
    35  C          0.29194000       0.60603000       0.96797000
    36  C          0.70806000       0.10603000       0.03203000
    37  H          0.31670000       0.65380000       0.01570000
    38  H          0.68330000       0.15380000       0.98430000
    39  C          0.32224000       0.53203000       0.16492000
    40  C          0.67776000       0.03203000       0.83508000
    41  H          0.28410000       0.59720000       0.14400000
    42  H          0.71590000       0.09720000       0.85600000
    43  C          0.00454000       0.39944000       0.22453000
    44  C         -0.00454000       0.89944000       0.77547000
    45  H         -0.00190000       0.43880000       0.27990000
    46  H          0.00190000       0.93880000       0.72010000
    47  H          0.05380000       0.33930000       0.24540000
    48  H          0.94620000       0.83930000       0.75460000
    49  H          0.91150000       0.38420000       0.18890000
    50  H          0.08850000       0.88420000       0.81110000
    51  C          0.46774000       0.54163000       0.22242000
    52  C          0.53226000       0.04163000       0.77758000
    53  H          0.50760000       0.47520000       0.23440000
    54  H          0.49240000       0.97520000       0.76560000
    55  C          0.47614000       0.59143000       0.31852000
    56  C          0.52386000       0.09143000       0.68148000
    57  H          0.41400000       0.64820000       0.31230000
    58  H          0.58600000       0.14820000       0.68770000
    59  H          0.45100000       0.54600000       0.36520000
    60  H          0.54900000       0.04600000       0.63480000
    61  C          0.22744000       0.48063000       0.21853000
    62  C          0.77256000       0.98063000       0.78147000
    63  H          0.21690000       0.52170000       0.27260000
    64  H          0.78310000       0.02170000       0.72740000
    65  H          0.27250000       0.41980000       0.24460000
    66  H          0.72750000       0.91980000       0.75540000
    67  C          0.69024000       0.61403000       0.26343000
    68  C          0.30976000       0.11403000       0.73657000
    69  H          0.75170000       0.55700000       0.26880000
    70  H          0.24830000       0.05700000       0.73120000
    71  H          0.74410000       0.67280000       0.25640000
    72  H          0.25590000       0.17280000       0.74360000
    73  C          0.21934000       0.56473000       0.80457000
    74  C          0.78066000       0.06473000       0.19543000
    75  C          0.00285000       0.54574000       0.12154000
    76  C         -0.00285000       0.04574000       0.87846000
    77  H         -0.00610000       0.58880000       0.17370000
    78  H          0.00610000       0.08880000       0.82630000
    79  H          0.91080000       0.52680000       0.08660000
    80  H          0.08920000       0.02680000       0.91340000
    81  H          0.05180000       0.57940000       0.07870000
    82  H          0.94820000       0.07940000       0.92130000
    83  O          0.16802000       0.80293180       0.37221150
    84  O          0.83198000       0.30293180       0.62778850
    85  O          0.29333000       0.97332000       0.53458190
    86  O          0.70667000       0.47332000       0.46541810
    87  O          0.29732000       0.77975180       0.56631170
    88  O          0.70268000       0.27975180       0.43368830
    89  O          0.97567000       0.76382000       0.26606180
    90  O          0.02433000       0.26382000       0.73393820
    91  O          0.96787000       0.65308180       0.49061190
    92  O          0.03213000       0.15308180       0.50938810
    93  H          0.95400000       0.59310000       0.48990000
    94  H          0.04600000       0.09310000       0.51010000
    95  C          0.09464000       0.79033000       0.28272000
    96  C          0.90536000       0.29033000       0.71728000
    97  C          0.17313000       0.81423000       0.21012000
    98  C          0.82687000       0.31423000       0.78988000
    99  C          0.35584000       0.79543000       0.65802000
   100  C          0.64416000       0.29543000       0.34198000
   101  C          0.16573000       0.82612000       0.53572000
   102  C          0.83427000       0.32612000       0.46428000
   103  H          0.10930000       0.81420000       0.58440000
   104  H          0.89070000       0.31420000       0.41560000
   105  C          0.17814000       0.93623000       0.52312000
   106  C          0.82186000       0.43623000       0.47688000
   107  C          0.37534000       0.87003000       0.15893000
   108  C          0.62466000       0.37003000       0.84107000
   109  H          0.46920000       0.88950000       0.17390000
   110  H          0.53080000       0.38950000       0.82610000
   111  C          0.17114000       0.83483000       0.04432000
   112  C          0.82886000       0.33483000       0.95568000
   113  H          0.12260000       0.83080000       0.98030000
   114  H          0.87740000       0.33080000       0.01970000
   115  C          0.54935000       0.74083000       0.78303000
   116  C          0.45065000       0.24083000       0.21697000
   117  H          0.50700000       0.77350000       0.82720000
   118  H          0.49300000       0.27350000       0.17280000
   119  C          0.10514000       0.80843000       0.11572000
   120  C          0.89486000       0.30843000       0.88428000
   121  H          0.01250000       0.78610000       0.10030000
   122  H         -0.01250000       0.28610000       0.89970000
   123  C          0.09174000       0.78143000       0.44322000
   124  C          0.90826000       0.28143000       0.55678000
   125  H         -0.00120000       0.81240000       0.42450000
   126  H          0.00120000       0.31240000       0.57550000
   127  C          0.48954000       0.74463000       0.68783000
   128  C          0.51046000       0.24463000       0.31217000
   129  C          0.31074000       0.84523000       0.23143000
   130  C          0.68926000       0.34523000       0.76857000
   131  H          0.35930000       0.84910000       0.29530000
   132  H          0.64070000       0.34910000       0.70470000
   133  C          0.86425000       0.58294000       0.78824000
   134  C          0.13575000       0.08294000       0.21176000
   135  H          0.88610000       0.54410000       0.73650000
   136  H          0.11390000       0.04410000       0.26350000
   137  H          0.84870000       0.53990000       0.83890000
   138  H          0.15130000       0.03990000       0.16110000
   139  H          0.94120000       0.62650000       0.81290000
   140  H          0.05880000       0.12650000       0.18710000
   141  C          0.07104000       0.67223000       0.44932000
   142  C          0.92896000       0.17223000       0.55068000
   143  C          0.55614000       0.70023000       0.62383000
   144  C          0.44386000       0.20023000       0.37617000
   145  H          0.51860000       0.70460000       0.55790000
   146  H          0.48140000       0.20460000       0.44210000
   147  C          0.37684000       0.89655000       0.98587000
   148  C          0.62316000       0.39655000       0.01413000
   149  H          0.42410000       0.95840000       0.00200000
   150  H          0.57590000       0.45840000      -0.00200000
   151  H          0.30800000       0.90340000       0.92680000
   152  H          0.69200000       0.40340000       0.07320000
   153  H          0.44410000       0.84700000       0.97800000
   154  H          0.55590000       0.34700000       0.02200000
   155  C          0.30644000       0.86713000       0.06403000
   156  C          0.69356000       0.36713000       0.93597000
   157  C          0.73454000       0.64203000       0.75143000
   158  C          0.26546000       0.14203000       0.24857000
   159  C          0.67754000       0.64933000       0.65603000
   160  C          0.32246000       0.14933000       0.34397000
   161  H          0.72210000       0.61900000       0.61160000
   162  H          0.27790000       0.11900000       0.38840000
   163  C          0.67055000       0.68974000       0.81493000
   164  C          0.32945000       0.18974000       0.18507000
   165  H          0.71000000       0.68730000       0.88070000
   166  H          0.29000000       0.18730000       0.11930000
   167  O          0.06203000       0.97592000       0.50122000
   168  O          0.93797000       0.47592000       0.49878000
   169  O          0.14133000       0.61338190       0.41882000
   170  O          0.85867000       0.11338190       0.58118000
   171  O          0.30253000       0.84342000       0.71072170
   172  O          0.69747000       0.34342000       0.28927830
   173  S          0.29736100       0.38696700       0.58040700
   174  S          0.70263900       0.88696700       0.41959300
   175  O          0.39943000       0.30552000       0.60792000
   176  O          0.60057000       0.80552000       0.39208000
   177  C          0.22805000       0.37354000       0.45883000
   178  C          0.77195000       0.87354000       0.54117000
   179  H          0.30280000       0.37390000       0.42390000
   180  H          0.69720000       0.87390000       0.57610000
   181  H          0.16450000       0.42700000       0.43690000
   182  H          0.83550000       0.92700000       0.56310000
   183  H          0.17800000       0.31200000       0.44770000
   184  H          0.82200000       0.81200000       0.55230000
   185  C          0.40325000       0.48913000       0.57414000
   186  C          0.59675000       0.98913000       0.42586000
   187  H          0.44500000       0.51080000       0.63830000
   188  H          0.55500000       0.01080000       0.36170000
   189  H          0.34720000       0.54140000       0.54000000
   190  H          0.65280000       0.04140000       0.46000000
   191  H          0.47610000       0.47150000       0.54070000
   192  H          0.52390000       0.97150000       0.45930000
