data_BIJGIN
_symmetry_space_group_name_H-M    'P1'
_symmetry_Int_Tables_number       1
loop_
_symmetry_equiv_pos_site_id
_symmetry_equiv_pos_as_xyz
1 x,y,z
_cell_length_a                   10.64468
_cell_length_b                   3.66143
_cell_length_c                   18.576813
_cell_angle_alpha                90.0
_cell_angle_beta                 90.4752
_cell_angle_gamma                90.0
loop_
_atom_site_label
_atom_site_type_symbol
_atom_site_fract_x
_atom_site_fract_y
_atom_site_fract_z
     1  O          0.57845000       0.51188500       0.52447000
     2  O          0.07845000       0.48811500       0.02447000
     3  H          0.63370600       0.46135600       0.55549200
     4  H          0.13370600       0.53864400       0.05549200
     5  O          0.45085000       0.45748300       0.62737000
     6  O          0.95085000       0.54251700       0.12737000
     7  H          0.38628800       0.56891200       0.64086100
     8  H          0.88628800       0.43108800       0.14086100
     9  O          0.35775000       0.49008100       0.51207000
    10  O          0.85775000       0.50991900       0.01207000
    11  H          0.37924000       0.48180100       0.46875000
    12  H          0.87924000       0.51819900       0.96875000
    13  B          0.46212000       0.48880000       0.55485000
    14  B          0.96212000       0.51120000       0.05485000
    15  O          0.42455000       0.63288200       0.37757000
    16  O          0.92455000       0.36711800       0.87757000
    17  O          0.24924000       0.49028100       0.31646000
    18  O          0.74924000       0.50971900       0.81646000
    19  H          0.21042400       0.41528700       0.27282500
    20  H          0.71042400       0.58471300       0.77282500
    21  C          0.36042000       0.58770000       0.32195000
    22  C          0.86042000       0.41230000       0.82195000
    23  H          0.40233400       0.63417500       0.27800100
    24  H          0.90233400       0.36582500       0.77800100
    25  O          0.20544000       0.50948200       0.77927000
    26  O          0.70544000       0.49051800       0.27927000
    27  H          0.15452700       0.54545700       0.82109200
    28  H          0.65452700       0.45454300       0.32109200
    29  O          0.21025000       0.56298200       0.65967000
    30  O          0.71025000       0.43701800       0.15967000
    31  C          0.16442000       0.61780000       0.71975000
    32  C          0.66442000       0.38220000       0.21975000
    33  H          0.08961900       0.75885400       0.72078400
    34  H          0.58961900       0.24114600       0.22078400
    35  O          0.75025000       0.39888100       0.62716000
    36  O          0.25025000       0.60111900       0.12716000
    37  O          0.92544000       0.43480000       0.56377000
    38  O          0.42544000       0.56520000       0.06377000
    39  H          0.01006400       0.46991700       0.55550800
    40  H          0.51006400       0.53008300       0.05550800
    41  C          0.86272000       0.32680000       0.61595000
    42  C          0.36272000       0.67320000       0.11595000
    43  H          0.90441100       0.17579800       0.65031200
    44  H          0.40441100       0.82420200       0.15031200
    45  O          0.94795000       0.61388200       0.31337000
    46  O          0.44795000       0.38611800       0.81337000
    47  H          0.87174300       0.59588300       0.30191200
    48  H          0.37174300       0.40411700       0.80191200
    49  O          0.07655000       0.56428300       0.41757000
    50  O          0.57655000       0.43571700       0.91757000
    51  H          0.17023200       0.49933400       0.40822000
    52  H          0.67023200       0.50066600       0.90822000
    53  O          0.85635000       0.60228300       0.42907000
    54  O          0.35635000       0.39771700       0.92907000
    55  H          0.87799700       0.55704300       0.47172700
    56  H          0.37799700       0.44295700       0.97172700
    57  B          0.95982000       0.60180000       0.38625000
    58  B          0.45982000       0.39820000       0.88625000
    59  O          0.10534000       0.06328200       0.22006000
    60  O          0.60534000       0.93671800       0.72006000
    61  H          0.05251700       0.15139400       0.18862500
    62  H          0.55251700       0.84860600       0.68862500
    63  H          0.15816300       0.91914500       0.19858900
    64  H          0.65816300       0.08085500       0.69858900
    65  O          0.14167000       0.01828100       0.54086000
    66  O          0.64167000      -0.01828100       0.04086000
    67  H          0.21085600       0.14309800       0.53728600
    68  H          0.71085600       0.85690200       0.03728600
    69  H          0.12461000       0.88728700       0.50297900
    70  H          0.62461000       0.11271300       0.00297900
    71  O          0.64033000       0.06171800       0.39936000
    72  O          0.14033000       0.93828200       0.89936000
    73  H          0.61634900       0.17217800       0.43839100
    74  H          0.11634900       0.82782200       0.93839100
    75  H          0.72002600       0.01075900       0.40270200
    76  H          0.22002600      -0.01075900       0.90270200
