data_BIJSIZ
_symmetry_space_group_name_H-M    'P1'
_symmetry_Int_Tables_number       1
loop_
_symmetry_equiv_pos_site_id
_symmetry_equiv_pos_as_xyz
1 x,y,z
_cell_length_a                   5.59463
_cell_length_b                   11.58486
_cell_length_c                   18.14699
_cell_angle_alpha                84.94201
_cell_angle_beta                 81.70401
_cell_angle_gamma                88.7002
loop_
_atom_site_label
_atom_site_type_symbol
_atom_site_fract_x
_atom_site_fract_y
_atom_site_fract_z
     1  S          0.23988100       0.34816500       0.56495300
     2  S          0.76011900       0.65183500       0.43504700
     3  O          0.17733000       0.23626130       0.53488800
     4  O          0.82267000       0.76373870       0.46511200
     5  C          0.55814000       0.35612000       0.54677170
     6  C          0.44186000       0.64388000       0.45322830
     7  H          0.61030000       0.36160000       0.49270000
     8  H          0.38970000       0.63840000       0.50730000
     9  H          0.62900000       0.28640000       0.57000000
    10  H          0.37100000       0.71360000       0.43000000
    11  H          0.61160000       0.42480000       0.56760000
    12  H          0.38840000       0.57520000       0.43240000
    13  C          0.20676000       0.31543000       0.66357130
    14  C          0.79324000       0.68457000       0.33642870
    15  H          0.30710000       0.24770000       0.67530000
    16  H          0.69290000       0.75230000       0.32470000
    17  H          0.03710000       0.29850000       0.68260000
    18  H          0.96290000       0.70150000       0.31740000
    19  H          0.25760000       0.38190000       0.68710000
    20  H          0.74240000       0.61810000       0.31290000
    21  S          0.30211110      -0.00134400       0.33151300
    22  S          0.69788890       0.00134400       0.66848700
    23  O          0.37883000       0.88354180       0.30403900
    24  O          0.62117000       0.11645820       0.69596100
    25  C         -0.01754000       0.00262000       0.34212130
    26  C          0.01754000      -0.00262000       0.65787870
    27  H          0.92940000       0.00500000       0.29280000
    28  H          0.07060000      -0.00500000       0.70720000
    29  H          0.92280000       0.07180000       0.36670000
    30  H          0.07720000       0.92820000       0.63330000
    31  H          0.91850000       0.93320000       0.37270000
    32  H          0.08150000       0.06680000       0.62730000
    33  C          0.32324000       0.98403000       0.42928130
    34  C          0.67676000       0.01597000       0.57071870
    35  H          0.21250000       0.92370000       0.45430000
    36  H          0.78750000       0.07630000       0.54570000
    37  H          0.27960000       0.05780000       0.45050000
    38  H          0.72040000       0.94220000       0.54950000
    39  H          0.48900000       0.96250000       0.43670000
    40  H          0.51100000       0.03750000       0.56330000
    41  O         -0.00527000       0.26826130       0.41226800
    42  O          0.00527000       0.73173870       0.58773200
    43  H          0.06450000       0.26120000       0.45391500
    44  H          0.93550000       0.73880000       0.54608500
    45  O          0.25692000       0.41345130       0.38151700
    46  O          0.74308000       0.58654870       0.61848300
    47  N          0.66212000       0.56655120       0.05802800
    48  N          0.33788000       0.43344880       0.94197200
    49  N          0.05632000       0.98437120       0.11741800
    50  N          0.94368000       0.01562880       0.88258200
    51  N          0.34303000       0.11029130       0.12548900
    52  N          0.65697000       0.88970870       0.87451100
    53  C          0.09173000       0.35695160       0.36750100
    54  C          0.90827000       0.64304840       0.63249900
    55  C          0.97733000       0.38035150       0.29824900
    56  C          0.02267000       0.61964850       0.70175100
    57  C          0.76653000       0.32543150       0.28850100
    58  C          0.23347000       0.67456850       0.71149900
    59  H          0.69450000       0.26930000       0.32600000
    60  H          0.30550000       0.73070000       0.67400000
    61  C          0.66133000       0.35225150       0.22438100
    62  C          0.33867000       0.64774850       0.77561900
    63  H          0.51780000       0.31400000       0.21840000
    64  H          0.48220000       0.68600000       0.78160000
    65  C          0.76323000       0.43496140       0.16815900
    66  C          0.23677000       0.56503860       0.83184100
    67  C          0.97913000       0.48758150       0.17748100
    68  C          0.02087000       0.51241850       0.82251900
    69  H          0.05460000       0.54190000       0.13940000
    70  H          0.94540000       0.45810000       0.86060000
    71  C          0.08303000       0.46085150       0.24201100
    72  C          0.91697000       0.53914850       0.75798900
    73  H          0.22810000       0.49790000       0.24790000
    74  H          0.77190000       0.50210000       0.75210000
    75  C          0.64523000       0.45977140       0.10139900
    76  C          0.35477000       0.54022860       0.89860100
    77  C          0.51833000       0.38249150       0.06802900
    78  C          0.48167000       0.61750850       0.93197100
    79  H          0.48120000       0.30430000       0.08530000
    80  H          0.51880000       0.69570000       0.91470000
    81  C          0.54423000       0.55565140      -0.00298900
    82  C          0.45577000       0.44434860       0.00298900
    83  C          0.75723000       0.67352140       0.07418900
    84  C          0.24277000       0.32647860       0.92581100
    85  C          0.66393000       0.72680150       0.13773900
    86  C          0.33607000       0.27319850       0.86226100
    87  H          0.53300000       0.69270000       0.17110000
    88  H          0.46700000       0.30730000       0.82890000
    89  C          0.76143000       0.82987150       0.15261900
    90  C          0.23857000       0.17012850       0.84738100
    91  H          0.69990000       0.86610000       0.19650000
    92  H          0.30010000       0.13390000       0.80350000
    93  C          0.95043000       0.87956140       0.10240900
    94  C          0.04957000       0.12043860       0.89759100
    95  C          0.04053000       0.82785150       0.03782100
    96  C          0.95947000       0.17214850       0.96217900
    97  H          0.16720000       0.86330000       0.00340000
    98  H          0.83280000       0.13670000      -0.00340000
    99  C          0.94383000       0.72380150       0.02393900
   100  C          0.05617000       0.27619850       0.97606100
   101  H          0.00540000       0.68730000       0.98020000
   102  H         -0.00540000       0.31270000       0.01980000
   103  C          0.29633000       0.00865160       0.10462110
   104  C          0.70367000      -0.00865160       0.89537890
   105  H          0.41650000       0.95770000       0.08300000
   106  H          0.58350000       0.04230000       0.91700000
   107  C          0.12043000       0.15447150       0.15336100
   108  C          0.87957000       0.84552850       0.84663900
   109  H          0.09520000       0.22790000       0.17290000
   110  H          0.90480000       0.77210000       0.82710000
   111  C          0.94183000       0.07860150       0.14915100
   112  C          0.05817000       0.92139850       0.85084900
   113  H          0.77360000       0.08840000       0.16480000
   114  H          0.22640000       0.91160000       0.83520000
