data_BIKQAO
_symmetry_space_group_name_H-M    'P1'
_symmetry_Int_Tables_number       1
loop_
_symmetry_equiv_pos_site_id
_symmetry_equiv_pos_as_xyz
1 x,y,z
_cell_length_a                   10.422
_cell_length_b                   18.222
_cell_length_c                   13.73912
_cell_angle_alpha                90.0
_cell_angle_beta                 91.48611
_cell_angle_gamma                90.0
loop_
_atom_site_label
_atom_site_type_symbol
_atom_site_fract_x
_atom_site_fract_y
_atom_site_fract_z
     1  O          0.17781000       0.62468700       0.18652110
     2  O          0.82219000       0.12468700       0.31347890
     3  O          0.82219000       0.37531300       0.81347890
     4  O          0.17781000       0.87531300       0.68652110
     5  O          0.94682870       0.34869800      -0.00482100
     6  O          0.05317130       0.84869800       0.50482100
     7  O          0.05317130       0.65130200       0.00482100
     8  O          0.94682870       0.15130200       0.49517900
     9  O          0.92631870       0.40985700       0.06808110
    10  O          0.07368130       0.90985700       0.43191890
    11  O          0.07368130       0.59014300       0.93191890
    12  O          0.92631870       0.09014300       0.56808110
    13  O          0.94537870       0.33607800       0.20823100
    14  O          0.05462130       0.83607800       0.29176900
    15  O          0.05462130       0.66392200       0.79176900
    16  O          0.94537870       0.16392200       0.70823100
    17  C          0.18152000       0.50329110       0.52672000
    18  C          0.81848000       0.00329110       0.97328000
    19  C          0.81848000       0.49670890       0.47328000
    20  C          0.18152000      -0.00329110       0.02672000
    21  C          0.15393000       0.52420130       0.61882000
    22  C          0.84607000       0.02420130       0.88118000
    23  C          0.84607000       0.47579870       0.38118000
    24  C          0.15393000       0.97579870       0.11882000
    25  C          0.22653000       0.49841000       0.69992000
    26  C          0.77347000      -0.00159000       0.80008000
    27  C          0.77347000       0.50159000       0.30008000
    28  C          0.22653000       0.00159000       0.19992000
    29  C          0.32452000       0.45162130       0.68582000
    30  C          0.67548000       0.95162130       0.81418000
    31  C          0.67548000       0.54837870       0.31418000
    32  C          0.32452000       0.04837870       0.18582000
    33  C          0.35862000       0.42768120       0.59052000
    34  C          0.64138000       0.92768120       0.90948000
    35  C          0.64138000       0.57231880       0.40948000
    36  C          0.35862000       0.07231880       0.09052000
    37  C          0.45592000       0.37690120       0.57582000
    38  C          0.54408000       0.87690120       0.92418000
    39  C          0.54408000       0.62309880       0.42418000
    40  C          0.45592000       0.12309880       0.07582000
    41  C          0.48812000       0.35341120       0.48342000
    42  C          0.51188000       0.85341120       0.01658000
    43  C          0.51188000       0.64658880       0.51658000
    44  C          0.48812000       0.14658880       0.98342000
    45  C          0.58352000       0.29892000       0.46782000
    46  C          0.41648000       0.79892000       0.03218000
    47  C          0.41648000       0.70108000       0.53218000
    48  C          0.58352000       0.20108000       0.96782000
    49  C          0.61332000       0.27632000       0.37822000
    50  C          0.38668000       0.77632000       0.12178000
    51  C          0.38668000       0.72368000       0.62178000
    52  C          0.61332000       0.22368000       0.87822000
    53  C          0.55232000       0.30821000       0.29592000
    54  C          0.44768000       0.80821000       0.20408000
    55  C          0.44768000       0.69179000       0.70408000
    56  C          0.55232000       0.19179000       0.79592000
    57  C          0.45932000       0.36028120       0.30672000
    58  C          0.54068000       0.86028120       0.19328000
    59  C          0.54068000       0.63971880       0.69328000
    60  C          0.45932000       0.13971880       0.80672000
    61  C          0.42102000       0.38354110       0.40012000
    62  C          0.57898000       0.88354110       0.09988000
    63  C          0.57898000       0.61645890       0.59988000
    64  C          0.42102000       0.11645890       0.90012000
    65  C          0.31882000       0.43303110       0.41352000
    66  C          0.68118000       0.93303110       0.08648000
    67  C          0.68118000       0.56696890       0.58648000
    68  C          0.31882000       0.06696890       0.91352000
    69  C          0.28632000       0.45537110       0.50832000
    70  C          0.71368000       0.95537110      -0.00832000
    71  C          0.71368000       0.54462890       0.49168000
    72  C          0.28632000       0.04462890       0.00832000
    73  C          0.24072000       0.45845110       0.32691000
    74  C          0.75928000       0.95845110       0.17309000
    75  C          0.75928000       0.54154890       0.67309000
    76  C          0.24072000       0.04154890       0.82691000
    77  C          0.16562000       0.40781110       0.27452000
    78  C          0.83438000       0.90781110       0.22548000
    79  C          0.83438000       0.59218890       0.72548000
    80  C          0.16562000       0.09218890       0.77452000
    81  C          0.09612000       0.42910110       0.19122000
    82  C          0.90388000       0.92910110       0.30878000
    83  C          0.90388000       0.57089890       0.80878000
    84  C          0.09612000       0.07089890       0.69122000
    85  C          0.10012000       0.50168110       0.16032000
    86  C          0.89988000       0.00168110       0.33968000
    87  C          0.89988000       0.49831890       0.83968000
    88  C          0.10012000      -0.00168110       0.66032000
    89  C          0.17212000       0.55234110       0.21402000
    90  C          0.82788000       0.05234110       0.28598000
    91  C          0.82788000       0.44765890       0.78598000
    92  C          0.17212000       0.94765890       0.71402000
    93  C          0.24172000       0.53134110       0.29622000
    94  C          0.75828000       0.03134110       0.20378000
    95  C          0.75828000       0.46865890       0.70378000
    96  C          0.24172000       0.96865890       0.79622000
    97  C          0.01302000       0.37372110       0.13872000
    98  C         -0.01302000       0.87372110       0.36128000
    99  C         -0.01302000       0.62627890       0.86128000
   100  C          0.01302000       0.12627890       0.63872000
   101  C          0.05012000       0.31575110       0.05802000
   102  C          0.94988000       0.81575110       0.44198000
   103  C          0.94988000       0.68424890       0.94198000
   104  C          0.05012000       0.18424890       0.55802000
   105  C         -0.00392000       0.24235110       0.09642000
   106  C          0.00392000       0.74235110       0.40358000
   107  C          0.00392000       0.75764890       0.90358000
   108  C         -0.00392000       0.25764890       0.59642000
   109  C          0.89068000       0.27190110       0.16182000
   110  C          0.10932000       0.77190110       0.33818000
   111  C          0.10932000       0.72809890       0.83818000
   112  C          0.89068000       0.22809890       0.66182000
   113  C          0.09212000       0.19886120       0.15892000
   114  C          0.90788000       0.69886120       0.34108000
   115  C          0.90788000       0.80113880       0.84108000
   116  C          0.09212000       0.30113880       0.65892000
   117  C          0.93558000       0.19192120       0.01842000
   118  C          0.06442000       0.69192120       0.48158000
   119  C          0.06442000       0.80807880       0.98158000
   120  C          0.93558000       0.30807880       0.51842000
   121  C          0.17962000       0.32045110       0.00472000
   122  C          0.82038000       0.82045110       0.49528000
   123  C          0.82038000       0.67954890      -0.00472000
   124  C          0.17962000       0.17954890       0.50472000
   125  C          0.29432000       0.31540130       0.07572000
   126  C          0.70568000       0.81540130       0.42428000
   127  C          0.70568000       0.68459870       0.92428000
   128  C          0.29432000       0.18459870       0.57572000
   129  C          0.18962000       0.39375120       0.94978000
   130  C          0.81038000       0.89375120       0.55022000
   131  C          0.81038000       0.60624880       0.05022000
   132  C          0.18962000       0.10624880       0.44978000
   133  C          0.18802000       0.25923120       0.92928000
   134  C          0.81198000       0.75923120       0.57072000
   135  C          0.81198000       0.74076880       0.07072000
   136  C          0.18802000       0.24076880       0.42928000
   137  H          0.13132000       0.52160110       0.47332000
   138  H          0.86868000       0.02160110       0.02668000
   139  H          0.86868000       0.47839890       0.52668000
   140  H          0.13132000       0.97839890       0.97332000
   141  H          0.08333000       0.55588130       0.62962000
   142  H          0.91667000       0.05588130       0.87038000
   143  H          0.91667000       0.44411870       0.37038000
   144  H          0.08333000       0.94411870       0.12962000
   145  H          0.20683000       0.51421000       0.76372000
   146  H          0.79317000       0.01421000       0.73628000
   147  H          0.79317000       0.48579000       0.23628000
   148  H          0.20683000       0.98579000       0.26372000
   149  H          0.37322000       0.43407130       0.74042000
   150  H          0.62678000       0.93407130       0.75958000
   151  H          0.62678000       0.56592870       0.25958000
   152  H          0.37322000       0.06592870       0.24042000
   153  H          0.50252000       0.35831120       0.63082000
   154  H          0.49748000       0.85831120       0.86918000
   155  H          0.49748000       0.64168880       0.36918000
   156  H          0.50252000       0.14168880       0.13082000
   157  H          0.62812000       0.27912000       0.52292000
   158  H          0.37188000       0.77912000       0.97708000
   159  H          0.37188000       0.72088000       0.47708000
   160  H          0.62812000       0.22088000       0.02292000
   161  H          0.67472000       0.23832000       0.37082000
   162  H          0.32528000       0.73832000       0.12918000
   163  H          0.32528000       0.76168000       0.62918000
   164  H          0.67472000       0.26168000       0.87082000
   165  H          0.57752000       0.29381000       0.23282000
   166  H          0.42248000       0.79381000       0.26718000
   167  H          0.42248000       0.70619000       0.76718000
   168  H          0.57752000       0.20619000       0.73282000
   169  H          0.41852000       0.38127120       0.25072000
   170  H          0.58148000       0.88127120       0.24928000
   171  H          0.58148000       0.61872880       0.74928000
   172  H          0.41852000       0.11872880       0.75072000
   173  H          0.16132000       0.35828110       0.29572000
   174  H          0.83868000       0.85828110       0.20428000
   175  H          0.83868000       0.64171890       0.70428000
   176  H          0.16132000       0.14171890       0.79572000
   177  H          0.05452000       0.51660110       0.10292000
   178  H          0.94548000       0.01660110       0.39708000
   179  H          0.94548000       0.48339890       0.89708000
   180  H          0.05452000       0.98339890       0.60292000
   181  H          0.29202000       0.56656110       0.33102000
   182  H          0.70798000       0.06656110       0.16898000
   183  H          0.70798000       0.43343890       0.66898000
   184  H          0.29202000       0.93343890       0.83102000
   185  H          0.86888000       0.23606110       0.20882000
   186  H          0.13112000       0.73606110       0.29118000
   187  H          0.13112000       0.76393890       0.79118000
   188  H          0.86888000       0.26393890       0.70882000
   189  H          0.81628000       0.28453110       0.12402000
   190  H          0.18372000       0.78453110       0.37598000
   191  H          0.18372000       0.71546890       0.87598000
   192  H          0.81628000       0.21546890       0.62402000
   193  H          0.04952000       0.15850120       0.18762000
   194  H          0.95048000       0.65850120       0.31238000
   195  H          0.95048000       0.84149880       0.81238000
   196  H          0.04952000       0.34149880       0.68762000
   197  H          0.15952000       0.18128120       0.11992000
   198  H          0.84048000       0.68128120       0.38008000
   199  H          0.84048000       0.81871880       0.88008000
   200  H          0.15952000       0.31871880       0.61992000
   201  H          0.12682000       0.22978120       0.20872000
   202  H          0.87318000       0.72978120       0.29128000
   203  H          0.87318000       0.77021880       0.79128000
   204  H          0.12682000       0.27021880       0.70872000
   205  H          0.87408000       0.21869120       0.98048000
   206  H          0.12592000       0.71869120       0.51952000
   207  H          0.12592000       0.78130880       0.01952000
   208  H          0.87408000       0.28130880       0.48048000
   209  H          0.00022000       0.17368120       0.97728000
   210  H         -0.00022000       0.67368120       0.52272000
   211  H         -0.00022000       0.82631880       0.02272000
   212  H          0.00022000       0.32631880       0.47728000
   213  H          0.89458000       0.15204120       0.04942000
   214  H          0.10542000       0.65204120       0.45058000
   215  H          0.10542000       0.84795880       0.95058000
   216  H          0.89458000       0.34795880       0.54942000
   217  H          0.18282000       0.21314120       0.96128000
   218  H          0.81718000       0.71314120       0.53872000
   219  H          0.81718000       0.78685880       0.03872000
   220  H          0.18282000       0.28685880       0.46128000
   221  H          0.11942000       0.26356120       0.88278000
   222  H          0.88058000       0.76356120       0.61722000
   223  H          0.88058000       0.73643880       0.11722000
   224  H          0.11942000       0.23643880       0.38278000
   225  H          0.26752000       0.26267120       0.89728000
   226  H          0.73248000       0.76267120       0.60272000
   227  H          0.73248000       0.73732880       0.10272000
   228  H          0.26752000       0.23732880       0.39728000
   229  H          0.26922000       0.39620120       0.91778000
   230  H          0.73078000       0.89620120       0.58222000
   231  H          0.73078000       0.60379880       0.08222000
   232  H          0.26922000       0.10379880       0.41778000
   233  H          0.12112000       0.39677120       0.90288000
   234  H          0.87888000       0.89677120       0.59712000
   235  H          0.87888000       0.60322880       0.09712000
   236  H          0.12112000       0.10322880       0.40288000
   237  H          0.18382000       0.43339120      -0.00562000
   238  H          0.81618000       0.93339120       0.50562000
   239  H          0.81618000       0.56660880       0.00562000
   240  H          0.18382000       0.06660880       0.49438000
   241  H          0.29272000       0.26911130       0.10742000
   242  H          0.70728000       0.76911130       0.39258000
   243  H          0.70728000       0.73088870       0.89258000
   244  H          0.29272000       0.23088870       0.60742000
   245  H          0.37162000       0.31993130       0.04092000
   246  H          0.62838000       0.81993130       0.45908000
   247  H          0.62838000       0.68006870       0.95908000
   248  H          0.37162000       0.18006870       0.54092000
   249  H          0.29012000       0.35343130       0.12282000
   250  H          0.70988000       0.85343130       0.37718000
   251  H          0.70988000       0.64656870       0.87718000
   252  H          0.29012000       0.14656870       0.62282000
   253  H          0.12891000       0.62877700       0.12124110
   254  H          0.87109000       0.12877700       0.37875890
   255  H          0.87109000       0.37122300       0.87875890
   256  H          0.12891000       0.87122300       0.62124110
   257  C          0.40743000       0.55342000       0.02003000
   258  C          0.59257000       0.05342000       0.47997000
   259  C          0.59257000       0.44658000       0.97997000
   260  C          0.40743000       0.94658000       0.52003000
   261  C          0.46553000       0.51312000       0.09472000
   262  C          0.53447000       0.01312000       0.40528000
   263  C          0.53447000       0.48688000       0.90528000
   264  C          0.46553000       0.98688000       0.59472000
   265  C          0.44143000       0.54062000       0.92298000
   266  C          0.55857000       0.04062000       0.57702000
   267  C          0.55857000       0.45938000       0.07702000
   268  C          0.44143000       0.95938000       0.42298000
