data_BIKYUP
_symmetry_space_group_name_H-M    'P1'
_symmetry_Int_Tables_number       1
loop_
_symmetry_equiv_pos_site_id
_symmetry_equiv_pos_as_xyz
1 x,y,z
_cell_length_a                   10.7268
_cell_length_b                   10.7132
_cell_length_c                   8.7364
_cell_angle_alpha                110.483
_cell_angle_beta                 109.662
_cell_angle_gamma                90.643
loop_
_atom_site_label
_atom_site_type_symbol
_atom_site_fract_x
_atom_site_fract_y
_atom_site_fract_z
     1  C          0.35662000       0.87048000       0.52407000
     2  C          0.64338000       0.12952000       0.47593000
     3  O          0.48681000       0.92449000       0.65128000
     4  O          0.51319000       0.07551000       0.34872000
     5  C          0.58022000       0.83558000       0.61787000
     6  C          0.41978000       0.16442000       0.38213000
     7  C          0.71632000       0.89758000       0.75288000
     8  C          0.28368000       0.10242000       0.24712000
     9  O          0.71791000       0.90149000       0.91818000
    10  O          0.28209000       0.09851000       0.08182000
    11  C          0.84572000       0.95558000       0.05182000
    12  C          0.15428000       0.04442000       0.94818000
    13  C          0.84192000       0.95358000       0.22023000
    14  C          0.15808000       0.04642000       0.77977000
    15  O          0.75431000       0.04291000       0.27442000
    16  O          0.24569000       0.95709000       0.72558000
    17  C          0.26082000       0.96268000       0.57198000
    18  C          0.73918000       0.03732000       0.42802000
    19  H          0.32911900       0.78128000       0.51837500
    20  H          0.67088100       0.21872000       0.48162500
    21  H          0.35321900       0.85988000       0.40307000
    22  H          0.64678100       0.14012000       0.59693000
    23  H          0.55421900       0.74617900       0.61767500
    24  H          0.44578100       0.25382100       0.38232500
    25  H          0.58071800       0.81888100       0.49917300
    26  H          0.41928200       0.18111900       0.50082700
    27  H          0.78641900       0.84588100       0.72447600
    28  H          0.21358100       0.15411900       0.27552400
    29  H          0.74011800      -0.00712000       0.76767600
    30  H          0.25988200       0.00712000       0.23232400
    31  H          0.91491900       0.90178200       0.02492300
    32  H          0.08508100       0.09821800       0.97507700
    33  H          0.87191800       0.05152000       0.06452400
    34  H          0.12808200       0.94848000       0.93547600
    35  H          0.93282000      -0.01701900       0.31142600
    36  H          0.06718000       0.01701900       0.68857400
    37  H          0.81341900       0.86327900       0.20682500
    38  H          0.18658100       0.13672100       0.79317500
    39  H          0.17002000       0.93668100       0.47757400
    40  H          0.82998000       0.06331900       0.52242600
    41  H          0.29171900       0.05462100       0.59527500
    42  H          0.70828100       0.94537900       0.40472500
    43  C          0.57442000       0.23232000      -0.01638000
    44  C          0.42558000       0.76768000       0.01638000
    45  O          0.69391000       0.22791000       0.97542000
    46  O          0.30609000       0.77209000       0.02458000
    47  N          0.48972000       0.30072000       0.90962000
    48  N          0.51028000       0.69928000       0.09038000
    49  N          0.54402000       0.16442000       0.06912000
    50  N          0.45598000       0.83558000       0.93088000
    51  H          0.71702600       0.28962800       0.92983500
    52  H          0.28297400       0.71037200       0.07016500
    53  H          0.51562400       0.34982500       0.85353200
    54  H          0.48437600       0.65017500       0.14646800
    55  H          0.42102200       0.31921900       0.93692600
    56  H          0.57897800       0.68078100       0.06307400
    57  H          0.46162400       0.15672200       0.06892900
    58  H          0.53837600       0.84327800       0.93107100
    59  H          0.60452000       0.12311900       0.12102500
    60  H          0.39548000       0.87688100       0.87897500
    61  C          0.08742000       0.36202000       0.47112000
    62  C          0.91258000       0.63798000       0.52888000
    63  C          0.22032000       0.42362000       0.54732000
    64  C          0.77968000       0.57638000       0.45268000
    65  C          0.28182000       0.46432000       0.45162000
    66  C          0.71818000       0.53568000       0.54838000
    67  C          0.20942000       0.44352000       0.27832000
    68  C          0.79058000       0.55648000       0.72168000
    69  C          0.07592000       0.38382000       0.20062000
    70  C          0.92408000       0.61618000       0.79938000
    71  C          0.01612000       0.34392000       0.29732000
    72  C         -0.01612000       0.65608000       0.70268000
    73  C          0.02162000       0.31472000       0.57223000
    74  C          0.97838000       0.68528000       0.42777000
    75  S          0.28350000       0.49390000       0.15311000
    76  S          0.71650000       0.50610000       0.84689000
    77  O          0.21531000       0.60561000       0.12112000
    78  O          0.78469000       0.39439000       0.87888000
    79  O          0.42491000       0.53791000       0.25702000
    80  O          0.57509000       0.46209000       0.74298000
    81  O          0.25761000       0.37911000      -0.00872000
    82  O          0.74239000       0.62089000       0.00872000
    83  H          0.27221700       0.43561700       0.66362500
    84  H          0.72778300       0.56438300       0.33637500
    85  H          0.37461900       0.50671900       0.50512400
    86  H          0.62538100       0.49328100       0.49487600
    87  H          0.02671800       0.37211800       0.08512600
    88  H          0.97328200       0.62788200       0.91487400
    89  H          0.92298200       0.30731700       0.24452300
    90  H          0.07701800       0.69268300       0.75547700
    91  H          0.07222500       0.35432500       0.69333500
    92  H          0.92777500       0.64567500       0.30666500
    93  H          0.02222400       0.21962900       0.54333200
    94  H          0.97777600       0.78037100       0.45666800
    95  H          0.93097500       0.33182300       0.54953000
    96  H          0.06902500       0.66817700       0.45047000
