data_BILGIP
_symmetry_space_group_name_H-M    'P1'
_symmetry_Int_Tables_number       1
loop_
_symmetry_equiv_pos_site_id
_symmetry_equiv_pos_as_xyz
1 x,y,z
_cell_length_a                   9.5873
_cell_length_b                   9.5873
_cell_length_c                   23.2353
_cell_angle_alpha                90.0
_cell_angle_beta                 90.0
_cell_angle_gamma                120.0
loop_
_atom_site_label
_atom_site_type_symbol
_atom_site_fract_x
_atom_site_fract_y
_atom_site_fract_z
     1  N          0.75420000       0.69231500       0.28946000
     2  N          0.30768500       0.06188500       0.62279333
     3  N          0.93811500       0.24580000       0.95612667
     4  N          0.69231500       0.75420000       0.71054000
     5  N          0.24580000       0.93811500       0.04387333
     6  N          0.06188500       0.30768500       0.37720667
     7  H          0.82580000       0.73140000       0.32280000
     8  H          0.26860000       0.09440000       0.65613333
     9  H          0.90560000       0.17420000       0.98946667
    10  H          0.73140000       0.82580000       0.67720000
    11  H          0.17420000       0.90560000       0.01053333
    12  H          0.09440000       0.26860000       0.34386667
    13  N          0.58241800       0.60541300       0.20556000
    14  N          0.39458700       0.97700500       0.53889333
    15  N          0.02299500       0.41758200       0.87222667
    16  N          0.60541300       0.58241800       0.79444000
    17  N          0.41758200       0.02299500       0.12777333
    18  N          0.97700500       0.39458700       0.46110667
    19  H          0.51210000       0.57210000       0.17160000
    20  H          0.42790000       0.94000000       0.50493333
    21  H          0.06000000       0.48790000       0.83826667
    22  H          0.57210000       0.51210000       0.82840000
    23  H          0.48790000       0.06000000       0.16173333
    24  H          0.94000000       0.42790000       0.49506667
    25  C          0.71401500       0.52471400       0.27545000
    26  C          0.47528600       0.18930100       0.60878333
    27  C          0.81069900       0.28598500       0.94211667
    28  C          0.52471400       0.71401500       0.72455000
    29  C          0.28598500       0.81069900       0.05788333
    30  C          0.18930100       0.47528600       0.39121667
    31  H          0.65810000       0.45370000       0.30750000
    32  H          0.54630000       0.20440000       0.64083333
    33  H          0.79560000       0.34190000       0.97416667
    34  H          0.45370000       0.65810000       0.69250000
    35  H          0.34190000       0.79560000       0.02583333
    36  H          0.20440000       0.54630000       0.35916667
    37  H          0.81170000       0.52110000       0.26800000
    38  H          0.47890000       0.29060000       0.60133333
    39  H          0.70940000       0.18830000       0.93466667
    40  H          0.52110000       0.81170000       0.73200000
    41  H          0.18830000       0.70940000       0.06533333
    42  H          0.29060000       0.47890000       0.39866667
    43  C          0.60330000       0.69430000       0.30228000
    44  C          0.30570000       0.90900000       0.63561333
    45  C          0.09100000       0.39670000       0.96894667
    46  C          0.69430000       0.60330000       0.69772000
    47  C          0.39670000       0.09100000       0.03105333
    48  C          0.90900000       0.30570000       0.36438667
    49  H          0.54550000       0.62160000       0.33370000
    50  H          0.37840000       0.92390000       0.66703333
    51  H          0.07610000       0.45450000       0.00036667
    52  H          0.62160000       0.54550000       0.66630000
    53  H          0.45450000       0.07610000      -0.00036667
    54  H          0.92390000       0.37840000       0.33296667
    55  H          0.62730000       0.80190000       0.31310000
    56  H          0.19810000       0.82540000       0.64643333
    57  H          0.17460000       0.37270000       0.97976667
    58  H          0.80190000       0.62730000       0.68690000
    59  H          0.37270000       0.17460000       0.02023333
    60  H          0.82540000       0.19810000       0.35356667
    61  C          0.60751400       0.47171400       0.22265000
    62  C          0.52828600       0.13580000       0.55598333
    63  C          0.86420000       0.39248600       0.88931667
    64  C          0.47171400       0.60751400       0.77735000
    65  C          0.39248600       0.86420000       0.11068333
    66  C          0.13580000       0.52828600       0.44401667
    67  H          0.65860000       0.44590000       0.19170000
    68  H          0.55410000       0.21270000       0.52503333
    69  H          0.78730000       0.34140000       0.85836667
    70  H          0.44590000       0.65860000       0.80830000
    71  H          0.34140000       0.78730000       0.14163333
    72  H          0.21270000       0.55410000       0.47496667
    73  H          0.50500000       0.37660000       0.23130000
    74  H          0.62340000       0.12840000       0.56463333
    75  H          0.87160000       0.49500000       0.89796667
    76  H          0.37660000       0.50500000       0.76870000
    77  H          0.49500000       0.87160000       0.10203333
    78  H          0.12840000       0.62340000       0.43536667
    79  C          0.83120000       0.79720000       0.24081000
    80  C          0.20280000       0.03400000       0.57414333
    81  C          0.96600000       0.16880000       0.90747667
    82  C          0.79720000       0.83120000       0.75919000
    83  C          0.16880000       0.96600000       0.09252333
    84  C          0.03400000       0.20280000       0.42585667
    85  H          0.86160000       0.90690000       0.25150000
    86  H          0.09310000       0.95470000       0.58483333
    87  H          0.04530000       0.13840000       0.91816667
    88  H          0.90690000       0.86160000       0.74850000
    89  H          0.13840000       0.04530000       0.08183333
    90  H          0.95470000       0.09310000       0.41516667
    91  H          0.92790000       0.79520000       0.23100000
    92  H          0.20480000       0.13270000       0.56433333
    93  H          0.86730000       0.07210000       0.89766667
    94  H          0.79520000       0.92790000       0.76900000
    95  H          0.07210000       0.86730000       0.10233333
    96  H          0.13270000       0.20480000       0.43566667
    97  C          0.50601800       0.64421800       0.25111000
    98  C          0.35578200       0.86180000       0.58444333
    99  C          0.13820000       0.49398200       0.91777667
   100  C          0.64421800       0.50601800       0.74889000
   101  C          0.49398200       0.13820000       0.08222333
   102  C          0.86180000       0.35578200       0.41555667
   103  H          0.48700000       0.72970000       0.23850000
   104  H          0.27030000       0.75730000       0.57183333
   105  H          0.24270000       0.51300000       0.90516667
   106  H          0.72970000       0.48700000       0.76150000
   107  H          0.51300000       0.24270000       0.09483333
   108  H          0.75730000       0.27030000       0.42816667
   109  H          0.40250000       0.55040000       0.25980000
   110  H          0.44960000       0.85210000       0.59313333
   111  H          0.14790000       0.59750000       0.92646667
   112  H          0.55040000       0.40250000       0.74020000
   113  H          0.59750000       0.14790000       0.07353333
   114  H          0.85210000       0.44960000       0.40686667
   115  C          0.72930000       0.75241800       0.19197000
   116  C          0.24758200       0.97688200       0.52530333
   117  C          0.02311800       0.27070000       0.85863667
   118  C          0.75241800       0.72930000       0.80803000
   119  C          0.27070000       0.02311800       0.14136333
   120  C          0.97688200       0.24758200       0.47469667
   121  H          0.78180000       0.73570000       0.15920000
   122  H          0.26430000       0.04610000       0.49253333
   123  H          0.95390000       0.21820000       0.82586667
   124  H          0.73570000       0.78180000       0.84080000
   125  H          0.21820000       0.95390000       0.17413333
   126  H          0.04610000       0.26430000       0.50746667
   127  H          0.70530000       0.83680000       0.18230000
   128  H          0.16320000       0.86850000       0.51563333
   129  H          0.13150000       0.29470000       0.84896667
   130  H          0.83680000       0.70530000       0.81770000
   131  H          0.29470000       0.13150000       0.15103333
   132  H          0.86850000       0.16320000       0.48436667
   133  Br         0.35485150       0.46704140       0.09376500
   134  Br         0.53295860       0.88781010       0.42709833
   135  Br         0.11218990       0.64514850       0.76043167
   136  Br         0.46704140       0.35485150       0.90623500
   137  Br         0.64514850       0.11218990       0.23956833
   138  Br         0.88781010       0.53295860       0.57290167
   139  N          0.66861300       0.66861300      -0.00000000
   140  N          0.33138700      -0.00000000       0.33333333
   141  N         -0.00000000       0.33138700       0.66666667
   142  H          0.68480000       0.75070000       0.02190000
   143  H          0.24930000       0.93410000       0.35523333
   144  H          0.06590000       0.31520000       0.68856667
   145  H          0.75070000       0.68480000       0.97810000
   146  H          0.31520000       0.06590000       0.31143333
   147  H          0.93410000       0.24930000       0.64476667
   148  H          0.56960000       0.61270000       0.98440000
   149  H          0.38730000       0.95690000       0.31773333
   150  H          0.04310000       0.43040000       0.65106667
   151  H          0.61270000       0.56960000       0.01560000
   152  H          0.43040000       0.04310000       0.34893333
   153  H          0.95690000       0.38730000       0.68226667
   154  N         -0.00000000       0.33791200       0.16670000
   155  N          0.66208800       0.66208800       0.50003333
   156  N          0.33791200       0.00000000       0.83336667
   157  H          0.92720000       0.25060000       0.18370000
   158  H          0.74940000       0.67660000       0.51703333
   159  H          0.32340000       0.07280000       0.85036667
   160  H          0.25060000       0.92720000       0.81630000
   161  H          0.07280000       0.32340000       0.14963333
   162  H          0.67660000       0.74940000       0.48296667
   163  H          0.04700000       0.41270000       0.19320000
   164  H          0.58730000       0.63430000       0.52653333
   165  H          0.36570000       0.95300000       0.85986667
   166  H          0.41270000       0.04700000       0.80680000
   167  H          0.95300000       0.36570000       0.14013333
   168  H          0.63430000       0.58730000       0.47346667
   169  Br         0.03005160       0.82893150       0.92896500
   170  Br         0.17106850       0.20112010       0.26229833
   171  Br         0.79887990       0.96994840       0.59563167
   172  Br         0.82893150       0.03005160       0.07103500
   173  Br         0.96994840       0.79887990       0.40436833
   174  Br         0.20112010       0.17106850       0.73770167
   175  Br         0.85361140       0.52373150       0.08321400
   176  Br         0.47626850       0.32987990       0.41654733
   177  Br         0.67012010       0.14638860       0.74988067
   178  Br         0.52373150       0.85361140       0.91678600
   179  Br         0.14638860       0.67012010       0.25011933
   180  Br         0.32987990       0.47626850       0.58345267
