data_BILJEO
_symmetry_space_group_name_H-M    'P1'
_symmetry_Int_Tables_number       1
loop_
_symmetry_equiv_pos_site_id
_symmetry_equiv_pos_as_xyz
1 x,y,z
_cell_length_a                   7.0624
_cell_length_b                   7.0624
_cell_length_c                   7.0624
_cell_angle_alpha                90.0
_cell_angle_beta                 90.0
_cell_angle_gamma                90.0
loop_
_atom_site_label
_atom_site_type_symbol
_atom_site_fract_x
_atom_site_fract_y
_atom_site_fract_z
     1  Br         0.50000000      -0.00000000       0.00000000
     2  Br         0.00000000       0.50000000       0.00000000
     3  Br         0.00000000      -0.00000000       0.50000000
     4  C          0.30140000       0.45240000       0.60840000
     5  C          0.69860000       0.54760000       0.60840000
     6  C          0.69860000       0.45240000       0.39160000
     7  C          0.30140000       0.54760000       0.39160000
     8  C          0.60840000       0.30140000       0.45240000
     9  C          0.60840000       0.69860000       0.54760000
    10  C          0.39160000       0.69860000       0.45240000
    11  C          0.39160000       0.30140000       0.54760000
    12  C          0.45240000       0.60840000       0.30140000
    13  C          0.54760000       0.60840000       0.69860000
    14  C          0.45240000       0.39160000       0.69860000
    15  C          0.54760000       0.39160000       0.30140000
    16  C          0.45240000       0.30140000       0.39160000
    17  C          0.54760000       0.69860000       0.39160000
    18  C          0.45240000       0.69860000       0.60840000
    19  C          0.54760000       0.30140000       0.60840000
    20  C          0.30140000       0.60840000       0.54760000
    21  C          0.69860000       0.60840000       0.45240000
    22  C          0.69860000       0.39160000       0.54760000
    23  C          0.30140000       0.39160000       0.45240000
    24  C          0.60840000       0.45240000       0.69860000
    25  C          0.60840000       0.54760000       0.30140000
    26  C          0.39160000       0.45240000       0.30140000
    27  C          0.39160000       0.54760000       0.69860000
    28  N          0.00000000      -0.00000000       0.00000000
