data_BILLEQ
_symmetry_space_group_name_H-M    'P1'
_symmetry_Int_Tables_number       1
loop_
_symmetry_equiv_pos_site_id
_symmetry_equiv_pos_as_xyz
1 x,y,z
_cell_length_a                   6.5884
_cell_length_b                   10.3115
_cell_length_c                   9.6595
_cell_angle_alpha                90.0
_cell_angle_beta                 90.2078
_cell_angle_gamma                90.0
loop_
_atom_site_label
_atom_site_type_symbol
_atom_site_fract_x
_atom_site_fract_y
_atom_site_fract_z
     1  Br        -0.01001890       0.28086800       0.18173700
     2  Br         0.01001890       0.78086800       0.81826300
     3  Br         0.55139120       0.04422900      -0.00331900
     4  Br         0.44860880       0.54422900       0.00331900
     5  Br         0.46130120       0.05175700       0.52077800
     6  Br         0.53869880       0.55175700       0.47922200
     7  N          0.48968000       0.29018000       0.24705000
     8  N          0.51032000       0.79018000       0.75295000
     9  H          0.60060000       0.28190000       0.19370000
    10  H          0.39940000       0.78190000       0.80630000
    11  H          0.37830000       0.28190000       0.19370000
    12  H          0.62170000       0.78190000       0.80630000
    13  H          0.48980000       0.23120000       0.31570000
    14  H          0.51020000       0.73120000       0.68430000
    15  H          0.48970000       0.36640000       0.29210000
    16  H          0.51030000       0.86640000       0.70790000
    17  N          0.16961000       0.70935000       0.31536000
    18  N          0.83039000       0.20935000       0.68464000
    19  H          0.27380000       0.64260000       0.32810000
    20  H          0.72620000       0.14260000       0.67190000
    21  N          0.08279000       0.97845000       0.08656000
    22  N          0.91721000       0.47845000       0.91344000
    23  H          0.20280000       0.00730000       0.05780000
    24  H          0.79720000       0.50730000       0.94220000
    25  H          0.04180000       0.91380000       0.03220000
    26  H          0.95820000       0.41380000       0.96780000
    27  H         -0.00750000       0.04270000       0.08270000
    28  H          0.00750000       0.54270000       0.91730000
    29  C          0.89711100       0.88043000       0.28648000
    30  C          0.10288900       0.38043000       0.71352000
    31  H          0.79210000       0.94700000       0.27500000
    32  H          0.20790000       0.44700000       0.72500000
    33  C         -0.00108700       0.65262000       0.23171000
    34  C          0.00108700       0.15262000       0.76829000
    35  H          0.94100000       0.57900000       0.27980000
    36  H          0.05900000       0.07900000       0.72020000
    37  H          0.04880000       0.62340000       0.14270000
    38  H          0.95120000       0.12340000       0.85730000
    39  C          0.10111100       0.93093000       0.23297000
    40  C          0.89888900       0.43093000       0.76703000
    41  H          0.14460000       0.00340000       0.29170000
    42  H          0.85540000       0.50340000       0.70830000
    43  C          0.09231200       0.74923000       0.45567000
    44  C          0.90768800       0.24923000       0.54433000
    45  H          0.04010000       0.67400000       0.50400000
    46  H          0.95990000       0.17400000       0.49600000
    47  H          0.20290000       0.78530000       0.50990000
    48  H          0.79710000       0.28530000       0.49010000
    49  C          0.92661200       0.84883000       0.44027000
    50  C          0.07338800       0.34883000       0.55973000
    51  H          0.96300000       0.92700000       0.49050000
    52  H          0.03700000       0.42700000       0.50950000
    53  H          0.80110000       0.81550000       0.47850000
    54  H          0.19890000       0.31550000       0.52150000
    55  C          0.26221100       0.82134000       0.24328000
    56  C          0.73778900       0.32134000       0.75672000
    57  H          0.30570000       0.79600000       0.15130000
    58  H          0.69430000       0.29600000       0.84870000
    59  H          0.38000000       0.85180000       0.29440000
    60  H          0.62000000       0.35180000       0.70560000
    61  C          0.83651100       0.75832000       0.21098000
    62  C          0.16348900       0.25832000       0.78902000
    63  H          0.82090000       0.77660000       0.11300000
    64  H          0.17910000       0.27660000       0.88700000
    65  H          0.70710000       0.72770000       0.24570000
    66  H          0.29290000       0.22770000       0.75430000
