data_BILMER
_symmetry_space_group_name_H-M    'P1'
_symmetry_Int_Tables_number       1
loop_
_symmetry_equiv_pos_site_id
_symmetry_equiv_pos_as_xyz
1 x,y,z
_cell_length_a                   6.5784
_cell_length_b                   10.3056
_cell_length_c                   9.6735
_cell_angle_alpha                90.0
_cell_angle_beta                 90.2349
_cell_angle_gamma                90.0
loop_
_atom_site_label
_atom_site_type_symbol
_atom_site_fract_x
_atom_site_fract_y
_atom_site_fract_z
     1  Br         0.00979900       0.71912800       0.81816800
     2  Br        -0.00979900       0.21912800       0.18183200
     3  Br         0.44869900       0.95573900       0.00343900
     4  Br         0.55130100       0.45573900      -0.00343900
     5  Br         0.53892900       0.94830700       0.47897800
     6  Br         0.46107100       0.44830700       0.52102200
     7  N          0.50946000       0.70938000       0.75245000
     8  N          0.49054000       0.20938000       0.24755000
     9  H          0.39830000       0.71750000       0.80580000
    10  H          0.60170000       0.21750000       0.19420000
    11  H          0.62070000       0.71750000       0.80580000
    12  H          0.37930000       0.21750000       0.19420000
    13  H          0.50920000       0.76820000       0.68370000
    14  H          0.49080000       0.26820000       0.31630000
    15  H          0.50920000       0.63300000       0.70740000
    16  H          0.49080000       0.13300000       0.29260000
    17  N          0.83181000       0.29105000       0.68546000
    18  N          0.16819000       0.79105000       0.31454000
    19  H          0.72810000       0.35830000       0.67310000
    20  H          0.27190000       0.85830000       0.32690000
    21  N          0.91752000       0.02035000       0.91346000
    22  N          0.08248000       0.52035000       0.08654000
    23  H          0.79750000      -0.00900000       0.94180000
    24  H          0.20250000       0.49100000       0.05820000
    25  H          0.00830000       0.95630000       0.91670000
    26  H         -0.00830000       0.45630000       0.08330000
    27  H          0.95820000       0.08480000       0.96820000
    28  H          0.04180000       0.58480000       0.03180000
    29  C          0.10389000       0.12057000       0.71448000
    30  C          0.89611000       0.62057000       0.28552000
    31  H          0.20940000       0.05430000       0.72610000
    32  H          0.79060000       0.55430000       0.27390000
    33  C          0.00279000       0.34688000       0.76641000
    34  C         -0.00279000       0.84688000       0.23359000
    35  H          0.95350000       0.37740000       0.85490000
    36  H          0.04650000       0.87740000       0.14510000
    37  H          0.06010000       0.42000000       0.71710000
    38  H          0.93990000       0.92000000       0.28290000
    39  C          0.89878900       0.06907000       0.76737000
    40  C          0.10121100       0.56907000       0.23263000
    41  H          0.85590000      -0.00320000       0.70800000
    42  H          0.14410000       0.49680000       0.29200000
    43  C          0.90779000       0.25078000       0.54447000
    44  C          0.09221000       0.75078000       0.45553000
    45  H          0.79610000       0.21520000       0.49060000
    46  H          0.20390000       0.71520000       0.50940000
    47  H          0.96010000       0.32590000       0.49590000
    48  H          0.03990000       0.82590000       0.50410000
    49  C          0.07259000       0.15067000       0.55878000
    50  C          0.92741000       0.65067000       0.44122000
    51  H          0.19800000       0.18310000       0.51920000
    52  H          0.80200000       0.68310000       0.48080000
    53  H          0.03430000       0.07220000       0.50970000
    54  H          0.96570000       0.57220000       0.49030000
    55  C          0.73881000       0.17986000       0.75478000
    56  C          0.26119000       0.67986000       0.24522000
    57  H          0.62230000       0.14990000       0.70200000
    58  H          0.37770000       0.64990000       0.29800000
    59  H          0.69280000       0.20510000       0.84600000
    60  H          0.30720000       0.70510000       0.15400000
    61  C          0.16539000       0.24407000       0.78898000
    62  C          0.83461000       0.74407000       0.21102000
    63  H          0.29450000       0.27480000       0.75370000
    64  H          0.70550000       0.77480000       0.24630000
    65  H          0.18100000       0.22690000       0.88700000
    66  H          0.81900000       0.72690000       0.11300000
