data_BILNUI
_symmetry_space_group_name_H-M    'P1'
_symmetry_Int_Tables_number       1
loop_
_symmetry_equiv_pos_site_id
_symmetry_equiv_pos_as_xyz
1 x,y,z
_cell_length_a                   6.7613
_cell_length_b                   6.7613
_cell_length_c                   6.7613
_cell_angle_alpha                88.1535
_cell_angle_beta                 88.1535
_cell_angle_gamma                88.1535
loop_
_atom_site_label
_atom_site_type_symbol
_atom_site_fract_x
_atom_site_fract_y
_atom_site_fract_z
     1  Br         0.08255000       0.01275000       0.49965000
     2  Br         0.49965000       0.08255000       0.01275000
     3  Br         0.01275000       0.49965000       0.08255000
     4  N          0.00131300       0.00131300       0.00131300
     5  H          0.97570000       0.95260000       0.12550000
     6  H          0.12550000       0.97570000       0.95260000
     7  H          0.95260000       0.12550000       0.97570000
     8  H          0.92680000       0.92680000       0.92680000
     9  N          0.41481400       0.41481400       0.41481400
    10  H          0.33370000       0.33370000       0.33370000
    11  C          0.48920000       0.58420000       0.29101800
    12  C          0.29101800       0.48920000       0.58420000
    13  C          0.58420000       0.29101800       0.48920000
    14  H          0.38000000       0.64870000       0.22150000
    15  H          0.22150000       0.38000000       0.64870000
    16  H          0.64870000       0.22150000       0.38000000
    17  H          0.58620000       0.53680000       0.19380000
    18  H          0.19380000       0.58620000       0.53680000
    19  H          0.53680000       0.19380000       0.58620000
    20  C          0.58220000       0.73020000       0.42820000
    21  C          0.42820000       0.58220000       0.73020000
    22  C          0.73020000       0.42820000       0.58220000
    23  H          0.70630000       0.77610000       0.37080000
    24  H          0.37080000       0.70630000       0.77610000
    25  H          0.77610000       0.37080000       0.70630000
    26  H          0.49370000       0.84300000       0.45070000
    27  H          0.45070000       0.49370000       0.84300000
    28  H          0.84300000       0.45070000       0.49370000
    29  O          0.73371400       0.73371400       0.73371400
    30  N          0.61591400       0.61591400       0.61591400
