data_BILSUL
_symmetry_space_group_name_H-M    'P1'
_symmetry_Int_Tables_number       1
loop_
_symmetry_equiv_pos_site_id
_symmetry_equiv_pos_as_xyz
1 x,y,z
_cell_length_a                   8.7562
_cell_length_b                   9.3862
_cell_length_c                   12.9893
_cell_angle_alpha                75.443
_cell_angle_beta                 78.713
_cell_angle_gamma                79.413
loop_
_atom_site_label
_atom_site_type_symbol
_atom_site_fract_x
_atom_site_fract_y
_atom_site_fract_z
     1  I          0.37136500       0.29846300       0.72326300
     2  I          0.62863500       0.70153700       0.27673700
     3  I          0.35045400       0.00590300       0.89222300
     4  I          0.64954600      -0.00590300       0.10777700
     5  I          0.35113600       0.71893600       0.02581300
     6  I          0.64886400       0.28106400       0.97418700
     7  I          0.10683500       0.43543400       0.92533300
     8  I          0.89316500       0.56456600       0.07466700
     9  O          0.93025000       0.23974000       0.58073000
    10  O          0.06975000       0.76026000       0.41927000
    11  O          0.83825000       0.17964000       0.40093000
    12  O          0.16175000       0.82036000       0.59907000
    13  N          0.06515000       0.01514000       0.26513000
    14  N          0.93485000       0.98486000       0.73487000
    15  C          0.84172000       0.34956000       0.50965000
    16  C          0.15828000       0.65044000       0.49035000
    17  H          0.86272000       0.45106000       0.50885000
    18  H          0.13728000       0.54894000       0.49115000
    19  H          0.72672000       0.34516000       0.53395000
    20  H          0.27328000       0.65484000       0.46605000
    21  C          0.88902000       0.31756000       0.39954000
    22  C          0.11098000       0.68244000       0.60046000
    23  H          0.83982000       0.39996000       0.34544000
    24  H          0.16018000       0.60004000       0.65456000
    25  H          0.00608000       0.30966000       0.37904000
    26  H         -0.00608000       0.69034000       0.62096000
    27  C          0.80673000       0.16936000       0.29994000
    28  C          0.19327000       0.83064000       0.70006000
    29  H          0.73623000       0.26096000       0.27034000
    30  H          0.26377000       0.73904000       0.72966000
    31  H          0.75053000       0.08196000       0.31034000
    32  H          0.24947000       0.91804000       0.68966000
    33  C          0.95723000       0.15266000       0.22004000
    34  C          0.04277000       0.84734000       0.77996000
    35  H          0.93203000       0.14426000       0.15014000
    36  H          0.06797000       0.85574000       0.84986000
    37  H          0.01097000       0.24256000       0.20624000
    38  H          0.98903000       0.75744000       0.79376000
    39  C          0.02538000       0.87554000       0.24444000
    40  C          0.97462000       0.12446000       0.75556000
    41  H          0.05868000       0.87444000       0.16644000
    42  H          0.94132000       0.12556000       0.83356000
    43  H          0.90872000       0.87614000       0.26184000
    44  H          0.09128000       0.12386000       0.73816000
    45  C          0.89562000       0.26216000       0.68734000
    46  C          0.10438000       0.73784000       0.31266000
    47  H          0.77942000       0.27356000       0.71224000
    48  H          0.22058000       0.72644000       0.28776000
    49  H          0.93612000       0.35316000       0.69154000
    50  H          0.06388000       0.64684000       0.30846000
    51  C          0.23767000       0.03636000       0.22314000
    52  C          0.76233000       0.96364000       0.77686000
    53  H          0.25027000       0.08036000       0.14394000
    54  H          0.74973000       0.91964000       0.85606000
    55  H          0.30567000       0.93734000       0.23514000
    56  H          0.69433000       0.06266000       0.76486000
    57  C          0.29016000       0.13645000       0.27944000
    58  C          0.70984000       0.86355000       0.72056000
    59  C          0.30887000       0.08476000       0.38615000
    60  C          0.69113000       0.91524000       0.61385000
    61  H          0.28617000       0.98254000       0.42485000
    62  H          0.71383000       0.01746000       0.57515000
    63  C          0.36108000       0.17427000       0.43995000
    64  C          0.63892000       0.82573000       0.56005000
    65  H          0.37428000       0.13697000       0.51735000
    66  H          0.62572000       0.86303000       0.48265000
    67  C          0.39338000       0.31636000       0.38505000
    68  C          0.60662000       0.68364000       0.61495000
    69  H          0.42978000       0.38226000       0.42225000
    70  H          0.57022000       0.61774000       0.57775000
    71  C          0.37297000       0.36705000       0.27495000
    72  C          0.62703000       0.63295000       0.72505000
    73  H          0.39947000       0.46715000       0.23385000
    74  H          0.60053000       0.53285000       0.76615000
    75  C          0.31917000       0.27936000       0.22534000
    76  C          0.68083000       0.72064000       0.77466000
    77  H          0.30057000       0.31756000       0.14904000
    78  H          0.69943000       0.68244000       0.85096000
    79  H          0.03477000      -0.00496000       0.34004000
    80  H          0.96523000       0.00496000       0.65996000
