data_BILXEA
_symmetry_space_group_name_H-M    'P1'
_symmetry_Int_Tables_number       1
loop_
_symmetry_equiv_pos_site_id
_symmetry_equiv_pos_as_xyz
1 x,y,z
_cell_length_a                   8.59762
_cell_length_b                   28.22876
_cell_length_c                   9.55122
_cell_angle_alpha                90.0
_cell_angle_beta                 99.43001
_cell_angle_gamma                90.0
loop_
_atom_site_label
_atom_site_type_symbol
_atom_site_fract_x
_atom_site_fract_y
_atom_site_fract_z
     1  N          0.44385190       0.09321600       0.06136180
     2  N          0.05614810       0.59321600       0.43863820
     3  N          0.55614810       0.90678400       0.93863820
     4  N          0.94385190       0.40678400       0.56136180
     5  H          0.35350000       0.07840000       0.03610000
     6  H          0.14650000       0.57840000       0.46390000
     7  H          0.64650000       0.92160000       0.96390000
     8  H          0.85350000       0.42160000       0.53610000
     9  N          0.47122000       0.87662400       0.45577180
    10  N          0.02878000       0.37662400       0.04422820
    11  N          0.52878000       0.12337600       0.54422820
    12  N          0.97122000       0.62337600       0.95577180
    13  H          0.37680000       0.87900000       0.40430000
    14  H          0.12320000       0.37900000       0.09570000
    15  H          0.62320000       0.12100000       0.59570000
    16  H          0.87680000       0.62100000       0.90430000
    17  O          0.67698170       0.08956600       0.21407160
    18  O          0.82301830       0.58956600       0.28592840
    19  O          0.32301830       0.91043400       0.78592840
    20  O          0.17698170       0.41043400       0.71407160
    21  O          0.69879170       0.91767400       0.52566160
    22  O          0.80120830       0.41767400       0.97433840
    23  O          0.30120830       0.08232600       0.47433840
    24  O          0.19879170       0.58232600       0.02566160
    25  S          0.62805600       0.00044200       0.34922600
    26  S          0.87194400       0.50044200       0.15077400
    27  S          0.37194400      -0.00044200       0.65077400
    28  S          0.12805600       0.49955800       0.84922600
    29  C          0.57093000       0.17116800       0.04672000
    30  C          0.92907000       0.67116800       0.45328000
    31  C          0.42907000       0.82883200       0.95328000
    32  C          0.07093000       0.32883200       0.54672000
    33  H          0.63710000       0.16660000       0.13560000
    34  H          0.86290000       0.66660000       0.36440000
    35  H          0.36290000       0.83340000       0.86440000
    36  H          0.13710000       0.33340000       0.63560000
    37  C          0.58163000       0.21214800       0.96958000
    38  C          0.91837000       0.71214800       0.53042000
    39  C          0.41837000       0.78785200       0.03042000
    40  C          0.08163000       0.28785200       0.46958000
    41  H          0.65760000       0.23540000       0.00540000
    42  H          0.84240000       0.73540000       0.49460000
    43  H          0.34240000       0.76460000      -0.00540000
    44  H          0.15760000       0.26460000       0.50540000
    45  C          0.48513000       0.21993900       0.84308000
    46  C          0.01487000       0.71993900       0.65692000
    47  C          0.51487000       0.78006100       0.15692000
    48  C         -0.01487000       0.28006100       0.34308000
    49  H          0.49390000       0.24830000       0.79160000
    50  H          0.00610000       0.74830000       0.70840000
    51  H          0.50610000       0.75170000       0.20840000
    52  H         -0.00610000       0.25170000       0.29160000
    53  C          0.37463000       0.18601800       0.79058000
    54  C          0.12537000       0.68601800       0.70942000
    55  C          0.62537000       0.81398200       0.20942000
    56  C          0.87463000       0.31398200       0.29058000
    57  H          0.30640000       0.19130000       0.70320000
    58  H          0.19360000       0.69130000       0.79680000
    59  H          0.69360000       0.80870000       0.29680000
    60  H          0.80640000       0.30870000       0.20320000
    61  C          0.36332000       0.14471800       0.86468000
    62  C          0.13668000       0.64471800       0.63532000
    63  C          0.63668000       0.85528200       0.13532000
    64  C          0.86332000       0.35528200       0.36468000
    65  H          0.28740000       0.12150000       0.82830000
    66  H          0.21260000       0.62150000       0.67170000
    67  H          0.71260000       0.87850000       0.17170000
    68  H          0.78740000       0.37850000       0.32830000
    69  C          0.46272000       0.13686800      -0.00722000
    70  C          0.03728000       0.63686800       0.50722000
    71  C          0.53728000       0.86313200       0.00722000
    72  C          0.96272000       0.36313200       0.49278000
    73  C          0.54982000       0.07200800       0.16112000
    74  C          0.95018000       0.57200800       0.33888000
    75  C          0.45018000       0.92799200       0.83888000
    76  C          0.04982000       0.42799200       0.66112000
    77  C          0.50692000       0.02444800       0.20612000
    78  C         -0.00692000       0.52444800       0.29388000
    79  C          0.49308000       0.97555200       0.79388000
    80  C          0.00692000       0.47555200       0.70612000
    81  C          0.38692000       0.99402300       0.15472000
    82  C          0.11308000       0.49402300       0.34528000
    83  C          0.61308000       0.00597700       0.84528000
    84  C          0.88692000       0.50597700       0.65472000
    85  H          0.30860000       0.00080000       0.07490000
    86  H          0.19140000       0.50080000       0.42510000
    87  H          0.69140000      -0.00080000       0.92510000
    88  H          0.80860000       0.49920000       0.57490000
    89  C          0.39222000       0.95172200       0.23252000
    90  C          0.10778000       0.45172200       0.26748000
    91  C          0.60778000       0.04827800       0.76748000
    92  C          0.89222000       0.54827800       0.73252000
    93  H          0.31770000       0.92680000       0.21120000
    94  H          0.18230000       0.42680000       0.28880000
    95  H          0.68230000       0.07320000       0.78880000
    96  H          0.81770000       0.57320000       0.71120000
    97  C          0.51592000       0.95020300       0.34202000
    98  C         -0.01592000       0.45020300       0.15798000
    99  C          0.48408000       0.04979700       0.65798000
   100  C          0.01592000       0.54979700       0.84202000
   101  C          0.57012000       0.91343200       0.44932000
   102  C          0.92988000       0.41343200       0.05068000
   103  C          0.42988000       0.08656800       0.55068000
   104  C          0.07012000       0.58656800       0.94932000
   105  C          0.50272000       0.83472200       0.53622000
   106  C         -0.00272000       0.33472200       0.96378000
   107  C          0.49728000       0.16527800       0.46378000
   108  C          0.00272000       0.66527800       0.03622000
   109  C          0.40372000       0.79670200       0.49942000
   110  C          0.09628000       0.29670200       0.00058000
   111  C          0.59628000       0.20329800       0.50058000
   112  C          0.90372000       0.70329800      -0.00058000
   113  H          0.31780000       0.79970000       0.42350000
   114  H          0.18220000       0.29970000       0.07650000
   115  H          0.68220000       0.20030000       0.57650000
   116  H          0.81780000       0.70030000       0.92350000
   117  C          0.42873000       0.75442200       0.57212000
   118  C          0.07127000       0.25442200       0.92788000
   119  C          0.57127000       0.24557800       0.42788000
   120  C          0.92873000       0.74557800       0.07212000
   121  H          0.35890000       0.72860000       0.54670000
   122  H          0.14110000       0.22860000       0.95330000
   123  H          0.64110000       0.27140000       0.45330000
   124  H          0.85890000       0.77140000       0.04670000
   125  C          0.55393000       0.74940200       0.68132000
   126  C          0.94607000       0.24940200       0.81868000
   127  C          0.44607000       0.25059800       0.31868000
   128  C          0.05393000       0.75059800       0.18132000
   129  H          0.57270000       0.72010000       0.73010000
   130  H          0.92730000       0.22010000       0.76990000
   131  H          0.42730000       0.27990000       0.26990000
   132  H          0.07270000       0.77990000       0.23010000
   133  C          0.65113000       0.78757100       0.71812000
   134  C          0.84887000       0.28757100       0.78188000
   135  C          0.34887000       0.21242900       0.28188000
   136  C          0.15113000       0.71242900       0.21812000
   137  H          0.73690000       0.78450000       0.79400000
   138  H          0.76310000       0.28450000       0.70600000
   139  H          0.26310000       0.21550000       0.20600000
   140  H          0.23690000       0.71550000       0.29400000
   141  C          0.62732000       0.83010200       0.64812000
   142  C          0.87268000       0.33010200       0.85188000
   143  C          0.37268000       0.16989800       0.35188000
   144  C          0.12732000       0.66989800       0.14812000
   145  H          0.69530000       0.85610000       0.67600000
   146  H          0.80470000       0.35610000       0.82400000
   147  H          0.30470000       0.14390000       0.32400000
   148  H          0.19530000       0.64390000       0.17600000
   149  S         -0.01666400       0.07091200       0.01092600
   150  S          0.51666400       0.57091200       0.48907400
   151  S          0.01666400       0.92908800      -0.01092600
   152  S          0.48333600       0.42908800       0.51092600
   153  O          0.12532160       0.05929500       0.94352860
   154  O          0.37467840       0.55929500       0.55647140
   155  O          0.87467840       0.94070500       0.05647140
   156  O          0.62532160       0.44070500       0.44352860
   157  C         -0.00817000       0.13262800       0.04752000
   158  C          0.50817000       0.63262800       0.45248000
   159  C          0.00817000       0.86737200       0.95248000
   160  C          0.49183000       0.36737200       0.54752000
   161  H          0.09760000       0.14090000       0.09630000
   162  H          0.40240000       0.64090000       0.40370000
   163  H          0.90240000       0.85910000       0.90370000
   164  H          0.59760000       0.35910000       0.59630000
   165  H          0.91410000       0.14070000       0.10810000
   166  H          0.58590000       0.64070000       0.39190000
   167  H          0.08590000       0.85930000       0.89190000
   168  H          0.41410000       0.35930000       0.60810000
   169  H          0.96850000       0.15030000       0.95830000
   170  H          0.53150000       0.65030000       0.54170000
   171  H          0.03150000       0.84970000       0.04170000
   172  H          0.46850000       0.34970000       0.45830000
   173  C          0.02533000       0.04979800       0.18862000
   174  C          0.47467000       0.54979800       0.31138000
   175  C          0.97467000       0.95020200       0.81138000
   176  C          0.52533000       0.45020200       0.68862000
   177  H          0.03620000       0.01520000       0.18810000
   178  H          0.46380000       0.51520000       0.31190000
   179  H          0.96380000       0.98480000       0.81190000
   180  H          0.53620000       0.48480000       0.68810000
   181  H          0.93910000       0.05850000       0.23910000
   182  H          0.56090000       0.55850000       0.26090000
   183  H          0.06090000       0.94150000       0.76090000
   184  H          0.43910000       0.44150000       0.73910000
   185  H          0.12390000       0.06400000       0.23650000
   186  H          0.37610000       0.56400000       0.26350000
   187  H          0.87610000       0.93600000       0.76350000
   188  H          0.62390000       0.43600000       0.73650000
   189  S         -0.00980400       0.12143200       0.62751400
   190  S          0.50980400       0.62143200       0.87248600
   191  S          0.00980400       0.87856800       0.37248600
   192  S          0.49019600       0.37856800       0.12751400
   193  O          0.84890160       0.13248500       0.69698850
   194  O          0.65109840       0.63248500       0.80301150
   195  O          0.15109840       0.86751500       0.30301150
   196  O          0.34890160       0.36751500       0.19698850
   197  C          0.95253000       0.14707900       0.45438000
   198  C          0.54747000       0.64707900       0.04562000
   199  C          0.04747000       0.85292100       0.54562000
   200  C          0.45253000       0.35292100       0.95438000
   201  H          0.85010000       0.13600000       0.40460000
   202  H          0.64990000       0.63600000       0.09540000
   203  H          0.14990000       0.86400000       0.59540000
   204  H          0.35010000       0.36400000       0.90460000
   205  H          0.03550000       0.13760000       0.40110000
   206  H          0.46450000       0.63760000       0.09890000
   207  H          0.96450000       0.86240000       0.59890000
   208  H          0.53550000       0.36240000       0.90110000
   209  H          0.95110000       0.18170000       0.46250000
   210  H          0.54890000       0.68170000       0.03750000
   211  H          0.04890000       0.81830000       0.53750000
   212  H          0.45110000       0.31830000       0.96250000
   213  C          0.97163000       0.06113800       0.57658000
   214  C          0.52837000       0.56113800       0.92342000
   215  C          0.02837000       0.93886200       0.42342000
   216  C          0.47163000       0.43886200       0.07658000
   217  H         -0.01400000       0.04110000       0.66160000
   218  H          0.51400000       0.54110000       0.83840000
   219  H          0.01400000       0.95890000       0.33840000
   220  H          0.48600000       0.45890000       0.16160000
   221  H          0.05200000       0.05330000       0.51850000
   222  H          0.44800000       0.55330000       0.98150000
   223  H          0.94800000       0.94670000       0.48150000
   224  H          0.55200000       0.44670000       0.01850000
   225  H          0.86660000       0.05560000       0.52150000
   226  H          0.63340000       0.55560000       0.97850000
   227  H          0.13340000       0.94440000       0.47850000
   228  H          0.36660000       0.44440000       0.02150000
