data_BIPDIP
_symmetry_space_group_name_H-M    'P1'
_symmetry_Int_Tables_number       1
loop_
_symmetry_equiv_pos_site_id
_symmetry_equiv_pos_as_xyz
1 x,y,z
_cell_length_a                   11.9787
_cell_length_b                   21.65413
_cell_length_c                   10.1976
_cell_angle_alpha                90.0
_cell_angle_beta                 95.7856
_cell_angle_gamma                90.0
loop_
_atom_site_label
_atom_site_type_symbol
_atom_site_fract_x
_atom_site_fract_y
_atom_site_fract_z
     1  Br         0.91945500       0.08952300       0.92015800
     2  Br         0.08054500       0.58952300       0.57984200
     3  Br         0.08054500       0.91047700       0.07984200
     4  Br         0.91945500       0.41047700       0.42015800
     5  O          0.63172000       0.95930130       0.49423000
     6  O          0.36828000       0.45930130       0.00577000
     7  O          0.36828000       0.04069870       0.50577000
     8  O          0.63172000       0.54069870      -0.00577000
     9  N          0.67653000       0.88412000       0.80124000
    10  N          0.32347000       0.38412000       0.69876000
    11  N          0.32347000       0.11588000       0.19876000
    12  N          0.67653000       0.61588000       0.30124000
    13  N          0.86273000       0.01109170       0.55344000
    14  N          0.13727000       0.51109170       0.94656000
    15  N          0.13727000       0.98890830       0.44656000
    16  N          0.86273000       0.48890830       0.05344000
    17  N          0.60963000       0.84424160       0.73054000
    18  N          0.39037000       0.34424160       0.76946000
    19  N          0.39037000       0.15575840       0.26946000
    20  N          0.60963000       0.65575840       0.23054000
    21  C          0.75783000      -0.00342820       0.75174000
    22  C          0.24217000       0.49657180       0.74826000
    23  C          0.24217000       0.00342820       0.24826000
    24  C          0.75783000       0.50342820       0.25174000
    25  H          0.83420000       0.98710000       0.79040000
    26  H          0.16580000       0.48710000       0.70960000
    27  H          0.16580000       0.01290000       0.20960000
    28  H          0.83420000       0.51290000       0.29040000
    29  O          0.91253000       0.01071170       0.34213000
    30  O          0.08747000       0.51071170       0.15787000
    31  O          0.08747000       0.98928830       0.65787000
    32  O          0.91253000       0.48928830       0.84213000
    33  C          0.58833000       0.87007160       0.60853000
    34  C          0.41167000       0.37007160       0.89147000
    35  C          0.41167000       0.12992840       0.39147000
    36  C          0.58833000       0.62992840       0.10853000
    37  C          0.52164000       0.84282000       0.38375000
    38  C          0.47836000       0.34282000       0.11625000
    39  C          0.47836000       0.15718000       0.61625000
    40  C          0.52164000       0.65718000       0.88375000
    41  H          0.58370000       0.86200000       0.35360000
    42  H          0.41630000       0.36200000       0.14640000
    43  H          0.41630000       0.13800000       0.64640000
    44  H          0.58370000       0.63800000       0.85360000
    45  C          0.70294000       0.03779190       0.84804000
    46  C          0.29706000       0.53779190       0.65196000
    47  C          0.29706000       0.96220810       0.15196000
    48  C          0.70294000       0.46220810       0.34804000
    49  C          0.64043000       0.92512000       0.60534000
    50  C          0.35957000       0.42512000       0.89466000
    51  C          0.35957000       0.07488000       0.39466000
    52  C          0.64043000       0.57488000       0.10534000
    53  C          0.71423000       0.86782000       0.93964000
    54  C          0.28577000       0.36782000       0.56036000
    55  C          0.28577000       0.13218000       0.06036000
    56  C          0.71423000       0.63218000       0.43964000
    57  C          0.76364000       0.07982000       0.93055000
    58  C          0.23636000       0.57982000       0.56945000
    59  C          0.23636000       0.92018000       0.06945000
    60  C          0.76364000       0.42018000       0.43055000
    61  C          0.77924000       0.90702000       0.02245000
    62  C          0.22076000       0.40702000       0.47755000
    63  C          0.22076000       0.09298000       0.97755000
    64  C          0.77924000       0.59298000       0.52245000
    65  H          0.80300000       0.94430000      -0.01020000
    66  H          0.19700000       0.44430000       0.51020000
    67  H          0.19700000       0.05570000       0.01020000
    68  H          0.80300000       0.55570000       0.48980000
    69  C          0.76623000       0.03102000       0.62114000
    70  C          0.23377000       0.53102000       0.87886000
    71  C          0.23377000       0.96898000       0.37886000
    72  C          0.76623000       0.46898000       0.12114000
    73  H          0.77470000       0.07510000       0.64070000
    74  H          0.22530000       0.57510000       0.85930000
    75  H          0.22530000       0.92490000       0.35930000
    76  H          0.77470000       0.42490000       0.14070000
    77  C          0.50904000       0.84157190       0.51624000
    78  C          0.49096000       0.34157190       0.98376000
    79  C          0.49096000       0.15842810       0.48376000
    80  C          0.50904000       0.65842810       0.01624000
    81  C          0.69783000       0.93709190       0.72404000
    82  C          0.30217000       0.43709190       0.77596000
    83  C          0.30217000       0.06290810       0.27596000
    84  C          0.69783000       0.56290810       0.22404000
    85  C          0.33804000       0.78552000       0.47136000
    86  C          0.66196000       0.28552000       0.02864000
    87  C          0.66196000       0.21448000       0.52864000
    88  C          0.33804000       0.71448000       0.97136000
    89  H          0.27570000       0.76640000       0.50100000
    90  H          0.72430000       0.26640000      -0.00100000
    91  H          0.72430000       0.23360000       0.49900000
    92  H          0.27570000       0.73360000       0.00100000
    93  C          0.66884000       0.02312000       0.51245000
    94  C          0.33116000       0.52312000      -0.01245000
    95  C          0.33116000       0.97688000       0.48755000
    96  C          0.66884000       0.47688000       0.01245000
    97  H          0.60620000       0.05100000       0.52470000
    98  H          0.39380000       0.55100000       0.97530000
    99  H          0.39380000       0.94900000       0.47530000
   100  H          0.60620000       0.44900000       0.02470000
   101  C          0.41794000       0.81242000       0.55945000
   102  C          0.58206000       0.31242000       0.94055000
   103  C          0.58206000       0.18758000       0.44055000
   104  C          0.41794000       0.68758000       0.05945000
   105  H          0.41020000       0.81070000       0.64920000
   106  H          0.58980000       0.31070000       0.85080000
   107  H          0.58980000       0.18930000       0.35080000
   108  H          0.41020000       0.68930000       0.14920000
   109  C          0.84354000       0.01832000       0.42155000
   110  C          0.15646000       0.51832000       0.07845000
   111  C          0.15646000       0.98168000       0.57845000
   112  C          0.84354000       0.48168000       0.92155000
   113  C          0.68194000       0.81212000      -0.00975000
   114  C          0.31806000       0.31212000       0.50975000
   115  C          0.31806000       0.18788000       0.00975000
   116  C          0.68194000       0.68788000       0.49025000
   117  H          0.63900000       0.78460000       0.93620000
   118  H          0.36100000       0.28460000       0.56380000
   119  H          0.36100000       0.21540000       0.06380000
   120  H          0.63900000       0.71540000       0.43620000
   121  C          0.44135000       0.81542000       0.29575000
   122  C          0.55865000       0.31542000       0.20425000
   123  C          0.55865000       0.18458000       0.70425000
   124  C          0.44135000       0.68458000       0.79575000
   125  H          0.44930000       0.81610000       0.20590000
   126  H          0.55070000       0.31610000       0.29410000
   127  H          0.55070000       0.18390000       0.79410000
   128  H          0.44930000       0.68390000       0.70590000
   129  C          0.80944000       0.89193000       0.15145000
   130  C          0.19056000       0.39193000       0.34855000
   131  C          0.19056000       0.10807000       0.84855000
   132  C          0.80944000       0.60807000       0.65145000
   133  H          0.85200000       0.91920000       0.20630000
   134  H          0.14800000       0.41920000       0.29370000
   135  H          0.14800000       0.08080000       0.79370000
   136  H          0.85200000       0.58080000       0.70630000
   137  C          0.72294000       0.03802000       0.38855000
   138  C          0.27706000       0.53802000       0.11145000
   139  C          0.27706000       0.96198000       0.61145000
   140  C          0.72294000       0.46198000       0.88855000
   141  H          0.68780000       0.01510000       0.31360000
   142  H          0.31220000       0.51510000       0.18640000
   143  H          0.31220000       0.98490000       0.68640000
   144  H          0.68780000       0.48490000       0.81360000
   145  H          0.71810000       0.08180000       0.36890000
   146  H          0.28190000       0.58180000       0.13110000
   147  H          0.28190000       0.91820000       0.63110000
   148  H          0.71810000       0.41820000       0.86890000
   149  C          0.71255000       0.79713000       0.11875000
   150  C          0.28745000       0.29713000       0.38125000
   151  C          0.28745000       0.20287000       0.88125000
   152  C          0.71255000       0.70287000       0.61875000
   153  H          0.68940000       0.75970000       0.15160000
   154  H          0.31060000       0.25970000       0.34840000
   155  H          0.31060000       0.24030000       0.84840000
   156  H          0.68940000       0.74030000       0.65160000
   157  C          0.58814000       0.03512000       0.85875000
   158  C          0.41186000       0.53512000       0.64125000
   159  C          0.41186000       0.96488000       0.14125000
   160  C          0.58814000       0.46488000       0.35875000
   161  H          0.54440000       0.00790000       0.80500000
   162  H          0.45560000       0.50790000       0.69500000
   163  H          0.45560000       0.99210000       0.19500000
   164  H          0.54440000       0.49210000       0.30500000
   165  C          0.53754000       0.07132000       0.94545000
   166  C          0.46246000       0.57132000       0.55455000
   167  C          0.46246000       0.92868000       0.05455000
   168  C          0.53754000       0.42868000       0.44545000
   169  H          0.46020000       0.06940000       0.94800000
   170  H          0.53980000       0.56940000       0.55200000
   171  H          0.53980000       0.93060000       0.05200000
   172  H          0.46020000       0.43060000       0.44800000
   173  C          0.77625000       0.83613000       0.19945000
   174  C          0.22375000       0.33613000       0.30055000
   175  C          0.22375000       0.16387000       0.80055000
   176  C          0.77625000       0.66387000       0.69945000
   177  H          0.79730000       0.82520000       0.28650000
   178  H          0.20270000       0.32520000       0.21350000
   179  H          0.20270000       0.17480000       0.71350000
   180  H          0.79730000       0.67480000       0.78650000
   181  C          0.60075000       0.11022000       0.02845000
   182  C          0.39925000       0.61022000       0.47155000
   183  C          0.39925000       0.88978000       0.97155000
   184  C          0.60075000       0.38978000       0.52845000
   185  H          0.56690000       0.13330000       0.09040000
   186  H          0.43310000       0.63330000       0.40960000
   187  H          0.43310000       0.86670000       0.90960000
   188  H          0.56690000       0.36670000       0.59040000
   189  C          0.35055000       0.78722000       0.33996000
   190  C          0.64945000       0.28722000       0.16004000
   191  C          0.64945000       0.21278000       0.66004000
   192  C          0.35055000       0.71278000       0.83996000
   193  H          0.29670000       0.76890000       0.28000000
   194  H          0.70330000       0.26890000       0.22000000
   195  H          0.70330000       0.23110000       0.72000000
   196  H          0.29670000       0.73110000       0.78000000
   197  C          0.71335000       0.11533000       0.02035000
   198  C          0.28665000       0.61533000       0.47965000
   199  C          0.28665000       0.88467000       0.97965000
   200  C          0.71335000       0.38467000       0.52035000
   201  H          0.75600000       0.14250000       0.07520000
   202  H          0.24400000       0.64250000       0.42480000
   203  H          0.24400000       0.85750000       0.92480000
   204  H          0.75600000       0.35750000       0.57520000
   205  O          0.13596000       0.81704000       0.67907000
   206  O          0.86404000       0.31704000       0.82093000
   207  O          0.86404000       0.18296000       0.32093000
   208  O          0.13596000       0.68296000       0.17907000
   209  C          0.03738000       0.81845000       0.65621200
   210  C          0.96262000       0.31845000       0.84378800
   211  C          0.96262000       0.18155000       0.34378800
   212  C          0.03738000       0.68155000       0.15621200
   213  H          0.02760000       0.77340000       0.65390000
   214  H          0.97240000       0.27340000       0.84610000
   215  H          0.97240000       0.22660000       0.34610000
   216  H          0.02760000       0.72660000       0.15390000
   217  C          0.98451500       0.82891000       0.52381500
   218  C          0.01548500       0.32891000       0.97618500
   219  C          0.01548500       0.17109000       0.47618500
   220  C          0.98451500       0.67109000       0.02381500
   221  H          0.01620000       0.86510000       0.48770000
   222  H          0.98380000       0.36510000       0.01230000
   223  H          0.98380000       0.13490000       0.51230000
   224  H          0.01620000       0.63490000      -0.01230000
   225  H          0.90530000       0.83470000       0.52640000
   226  H          0.09470000       0.33470000       0.97360000
   227  H          0.09470000       0.16530000       0.47360000
   228  H          0.90530000       0.66530000       0.02640000
   229  H         -0.00290000       0.79380000       0.46950000
   230  H          0.00290000       0.29380000       0.03050000
   231  H          0.00290000       0.20620000       0.53050000
   232  H         -0.00290000       0.70620000       0.96950000
   233  C          0.96431100       0.82848000       0.74451500
   234  C          0.03568900       0.32848000       0.75548500
   235  C          0.03568900       0.17152000       0.25548500
   236  C          0.96431100       0.67152000       0.24451500
   237  H          0.96390000       0.79350000       0.80260000
   238  H          0.03610000       0.29350000       0.69740000
   239  H          0.03610000       0.20650000       0.19740000
   240  H          0.96390000       0.70650000       0.30260000
   241  H          0.89060000       0.83410000       0.69970000
   242  H          0.10940000       0.33410000       0.80030000
   243  H          0.10940000       0.16590000       0.30030000
   244  H          0.89060000       0.66590000       0.19970000
   245  H          0.98590000       0.86470000       0.79470000
   246  H          0.01410000       0.36470000       0.70530000
   247  H          0.01410000       0.13530000       0.20530000
   248  H          0.98590000       0.63530000       0.29470000
