data_BIPZAF
_symmetry_space_group_name_H-M    'P1'
_symmetry_Int_Tables_number       1
loop_
_symmetry_equiv_pos_site_id
_symmetry_equiv_pos_as_xyz
1 x,y,z
_cell_length_a                   7.54397
_cell_length_b                   9.15948
_cell_length_c                   9.54198
_cell_angle_alpha                69.6793
_cell_angle_beta                 69.1343
_cell_angle_gamma                70.3253
loop_
_atom_site_label
_atom_site_type_symbol
_atom_site_fract_x
_atom_site_fract_y
_atom_site_fract_z
     1  O          0.97505140       0.27580110       0.63696120
     2  O          0.02494860       0.72419890       0.36303880
     3  O         -0.00030840       0.11584120       0.74223120
     4  O          0.00030840       0.88415880       0.25776880
     5  H          0.87830000       0.28230000       0.60730000
     6  H          0.12170000       0.71770000       0.39270000
     7  H          0.08130000       0.05830000       0.67520000
     8  H          0.91870000       0.94170000       0.32480000
     9  S          0.60388400       0.16103300       0.54633300
    10  S          0.39611600       0.83896700       0.45366700
    11  N          0.57403140       0.49517110       0.22693110
    12  N          0.42596860       0.50482890       0.77306890
    13  H          0.51120000       0.54920000       0.29520000
    14  H          0.48880000       0.45080000       0.70480000
    15  O          0.29854130       0.38701100       0.47711110
    16  O          0.70145870       0.61298900       0.52288890
    17  H          0.20930000       0.35030000       0.52620000
    18  H          0.79070000       0.64970000       0.47380000
    19  O          0.77721130       0.06312110       0.46348110
    20  O          0.22278870       0.93687890       0.53651890
    21  O          0.48382140       0.07057110       0.68059100
    22  O          0.51617860       0.92942890       0.31940900
    23  O          0.64794130       0.28869100       0.57880100
    24  O          0.35205870       0.71130900       0.42119900
    25  C          0.56858160       0.34314130       0.25812130
    26  C          0.43141840       0.65685870       0.74187870
    27  C          0.67199180       0.25580140       0.14655140
    28  C          0.32800820       0.74419860       0.85344860
    29  C          0.77690180       0.32893140       0.00373140
    30  C          0.22309820       0.67106860      -0.00373140
    31  C          0.77915170       0.49158140       0.96914870
    32  C          0.22084830       0.50841860       0.03085130
    33  C          0.88004180       0.57532150       0.82193860
    34  C          0.11995820       0.42467850       0.17806140
    35  C          0.87315190       0.73380160       0.79429860
    36  C          0.12684810       0.26619840       0.20570140
    37  C          0.76962000       0.81439150       0.91266850
    38  C          0.23038000       0.18560850       0.08733150
    39  C          0.67182190       0.73770140       0.05720140
    40  C          0.32817810       0.26229860       0.94279860
    41  C          0.67532160       0.57531130       0.08523130
    42  C          0.32467840       0.42468870       0.91476870
    43  C          0.44845160       0.26918130       0.41465130
    44  C          0.55154840       0.73081870       0.58534870
    45  H          0.66630000       0.14520000       0.17320000
    46  H          0.33370000       0.85480000       0.82680000
    47  H          0.84730000       0.26620000       0.92780000
    48  H          0.15270000       0.73380000       0.07220000
    49  H          0.94930000       0.51820000       0.74480000
    50  H          0.05070000       0.48180000       0.25520000
    51  H          0.93830000       0.78920000       0.69780000
    52  H          0.06170000       0.21080000       0.30220000
    53  H          0.76330000       0.92820000       0.89480000
    54  H          0.23670000       0.07180000       0.10520000
    55  H          0.60830000       0.78820000       0.13420000
    56  H          0.39170000       0.21180000       0.86580000
    57  H          0.40520000       0.19020000       0.40581800
    58  H          0.59480000       0.80980000       0.59418200
