data_BIRDIP
_symmetry_space_group_name_H-M    'P1'
_symmetry_Int_Tables_number       1
loop_
_symmetry_equiv_pos_site_id
_symmetry_equiv_pos_as_xyz
1 x,y,z
_cell_length_a                   6.9151
_cell_length_b                   7.6151
_cell_length_c                   8.1491
_cell_angle_alpha                79.391
_cell_angle_beta                 69.551
_cell_angle_gamma                70.811
loop_
_atom_site_label
_atom_site_type_symbol
_atom_site_fract_x
_atom_site_fract_y
_atom_site_fract_z
     1  S          0.15021000       0.12607000       0.07211000
     2  S          0.84979000       0.87393000       0.92789000
     3  S          0.49943000       0.25209000       0.09488000
     4  S          0.50057000       0.74791000       0.90512000
     5  C          0.42723000       0.07812000       0.03523000
     6  C          0.57277000       0.92188000       0.96477000
     7  C          0.23874000       0.39205000       0.17205000
     8  C          0.76126000       0.60795000       0.82795000
     9  C          0.08249000       0.33616000       0.16186000
    10  C          0.91751000       0.66384000       0.83814000
    11  H          0.21900000       0.50700000       0.21900000
    12  H          0.78100000       0.49300000       0.78100000
    13  H          0.93300000       0.40000000       0.19900000
    14  H          0.06700000       0.60000000       0.80100000
    15  O          0.77946000       0.26346000       0.59971000
    16  O          0.22054000       0.73654000       0.40029000
    17  O          0.44230000       0.41012000       0.68800000
    18  O          0.55770000       0.58988000       0.31200000
    19  N          0.59136000       0.27938000       0.61962000
    20  N          0.40864000       0.72062000       0.38038000
    21  C          0.71207000      -0.01106000       0.47684000
    22  C          0.28793000       0.01106000       0.52316000
    23  C          0.54338000       0.13377000       0.55831000
    24  C          0.45662000       0.86623000       0.44169000
    25  C          0.33076000       0.14828000       0.58227000
    26  C          0.66924000       0.85172000       0.41773000
    27  H          0.85500000       0.98200000       0.45800000
    28  H          0.14500000       0.01800000       0.54200000
    29  H          0.22000000       0.25400000       0.63700000
    30  H          0.78000000       0.74600000       0.36300000
