data_BISMEZ
_symmetry_space_group_name_H-M    'P1'
_symmetry_Int_Tables_number       1
loop_
_symmetry_equiv_pos_site_id
_symmetry_equiv_pos_as_xyz
1 x,y,z
_cell_length_a                   6.42273
_cell_length_b                   7.25274
_cell_length_c                   8.83944
_cell_angle_alpha                93.2313
_cell_angle_beta                 102.9043
_cell_angle_gamma                102.3473
loop_
_atom_site_label
_atom_site_type_symbol
_atom_site_fract_x
_atom_site_fract_y
_atom_site_fract_z
     1  Cl         0.66704120       0.32601100       0.51723900
     2  Cl         0.33295880       0.67398900       0.48276100
     3  Cl         0.06932110       0.41032100       0.75191900
     4  Cl         0.93067890       0.58967900       0.24808100
     5  N          0.69984000       0.21583000       0.79573000
     6  N          0.30016000       0.78417000       0.20427000
     7  C          0.79855000       0.30534000       0.70144000
     8  C          0.20145000       0.69466000       0.29856000
     9  C          0.46315000       0.12744000       0.75634000
    10  C          0.53685000       0.87256000       0.24366000
    11  H          0.39640200       0.15208400       0.65068500
    12  H          0.60359800       0.84791600       0.34931500
    13  H          0.39416100       0.18118200       0.83108000
    14  H          0.60583900       0.81881800       0.16892000
    15  H          0.44114200      -0.00988600       0.76096200
    16  H          0.55885800       0.00988600       0.23903800
    17  C          0.81195000       0.19054000       0.95524000
    18  C          0.18805000       0.80946000       0.04476000
    19  H          0.96772100       0.25452800       0.97586500
    20  H          0.03227900       0.74547200       0.02413500
    21  H          0.79782300       0.05477200       0.96519200
    22  H          0.20217700       0.94522800       0.03480800
    23  H          0.74478700       0.24540200       0.03059600
    24  H          0.25521300       0.75459800       0.96940400
    25  Cl         0.07743120       0.12339100       0.34319900
    26  Cl         0.92256880       0.87660900       0.65680100
    27  H          0.22250000       0.21840000       0.26030000
    28  H          0.77750000       0.78160000       0.73970000
    29  Cl         0.40982110       0.34852100       0.16036800
    30  Cl         0.59017890       0.65147900       0.83963200
