data_BIXMIF
_symmetry_space_group_name_H-M    'P1'
_symmetry_Int_Tables_number       1
loop_
_symmetry_equiv_pos_site_id
_symmetry_equiv_pos_as_xyz
1 x,y,z
_cell_length_a                   15.48303
_cell_length_b                   7.909001
_cell_length_c                   19.55404
_cell_angle_alpha                90.0
_cell_angle_beta                 105.42601
_cell_angle_gamma                90.0
loop_
_atom_site_label
_atom_site_type_symbol
_atom_site_fract_x
_atom_site_fract_y
_atom_site_fract_z
     1  Br         0.11593015       0.18517300       0.84568888
     2  Br         0.38406985       0.68517300       0.65431112
     3  Br         0.88406985       0.81482700       0.15431112
     4  Br         0.61593015       0.31482700       0.34568888
     5  S          0.30936400       0.83408400       0.85224700
     6  S          0.19063600       0.33408400       0.64775300
     7  S          0.69063600       0.16591600       0.14775300
     8  S          0.80936400       0.66591600       0.35224700
     9  O          0.40308100       0.83789820       0.88596200
    10  O          0.09691900       0.33789820       0.61403800
    11  O          0.59691900       0.16210180       0.11403800
    12  O          0.90308100       0.66210180       0.38596200
    13  O          0.26304110       0.67790830       0.83864200
    14  O          0.23695890       0.17790830       0.66135800
    15  O          0.73695890       0.32209170       0.16135800
    16  O          0.76304110       0.82209170       0.33864200
    17  O          0.26030900       0.92101830       0.90765300
    18  O          0.23969100       0.42101830       0.59234700
    19  O          0.73969100       0.07898170       0.09234700
    20  O          0.76030900       0.57898170       0.40765300
    21  N          0.28973120       0.94588000       0.78376100
    22  N          0.21026880       0.44588000       0.71623900
    23  N          0.71026880       0.05412000       0.21623900
    24  N          0.78973120       0.55412000       0.28376100
    25  N          0.37843110       0.57992000       0.10030900
    26  N          0.12156890       0.07992000       0.39969100
    27  N          0.62156890       0.42008000       0.89969100
    28  N          0.87843110       0.92008000       0.60030900
    29  N          0.46596110       0.62752000       0.13438900
    30  N          0.03403890       0.12752000       0.36561100
    31  N          0.53403890       0.37248000       0.86561100
    32  N          0.96596110       0.87248000       0.63438900
    33  N          0.60547120       0.60972000       0.19525900
    34  N          0.89452880       0.10972000       0.30474100
    35  N          0.39452880       0.39028000       0.80474100
    36  N          0.10547120       0.89028000       0.69525900
    37  N          0.58404120       0.77932000       0.18144100
    38  N          0.91595880       0.27932000       0.31855900
    39  N          0.41595880       0.22068000       0.81855900
    40  N          0.08404120       0.72068000       0.68144100
    41  N          0.07403150       0.68213000       0.28985130
    42  N          0.42596850       0.18213000       0.21014870
    43  N          0.92596850       0.31787000       0.71014870
    44  N          0.57403150       0.81787000       0.78985130
    45  C          0.53400140       0.52243000       0.16675110
    46  C          0.96599860       0.02243000       0.33324890
    47  C          0.46599860       0.47757000       0.83324890
    48  C          0.03400140       0.97757000       0.66675110
    49  H          0.52990000       0.40270000       0.16830000
    50  H          0.97010000       0.90270000       0.33170000
    51  H          0.47010000       0.59730000       0.83170000
    52  H          0.02990000       0.09730000       0.66830000
    53  C          0.50075150       0.78693000       0.14558110
    54  C         -0.00075150       0.28693000       0.35441890
    55  C          0.49924850       0.21307000       0.85441890
    56  C          0.00075150       0.71307000       0.64558110
    57  H          0.46870000       0.88810000       0.12950000
    58  H          0.03130000       0.38810000       0.37050000
    59  H          0.53130000       0.11190000       0.87050000
    60  H          0.96870000       0.61190000       0.62950000
    61  C          0.31511140       0.59973000       0.13884110
    62  C          0.18488860       0.09973000       0.36115890
    63  C          0.68488860       0.40027000       0.86115890
    64  C          0.81511140       0.90027000       0.63884110
    65  C          0.22344140       0.59083000       0.10488110
    66  C          0.27655860       0.09083000       0.39511890
    67  C          0.77655860       0.40917000       0.89511890
    68  C          0.72344140       0.90917000       0.60488110
    69  H          0.20410000       0.56950000       0.05530000
    70  H          0.29590000       0.06950000       0.44470000
    71  H          0.79590000       0.43050000       0.94470000
    72  H          0.70410000       0.93050000       0.55530000
    73  C          0.16103150       0.61273000       0.14293120
    74  C          0.33896850       0.11273000       0.35706880
    75  C          0.83896850       0.38727000       0.85706880
    76  C          0.66103150       0.88727000       0.64293120
    77  H          0.09900000       0.60740000       0.11920000
    78  H          0.40100000       0.10740000       0.38080000
    79  H          0.90100000       0.39260000       0.88080000
    80  H          0.59900000       0.89260000       0.61920000
    81  C          0.18800150       0.64263000       0.21581120
    82  C          0.31199850       0.14263000       0.28418880
    83  C          0.81199850       0.35737000       0.78418880
    84  C          0.68800150       0.85737000       0.71581120
    85  C          0.27932160       0.64983000       0.24969130
    86  C          0.22067840       0.14983000       0.25030870
    87  C          0.72067840       0.35017000       0.75030870
    88  C          0.77932160       0.85017000       0.74969130
    89  H          0.29860000       0.67040000       0.29930000
    90  H          0.20140000       0.17040000       0.20070000
    91  H          0.70140000       0.32960000       0.70070000
    92  H          0.79860000       0.82960000       0.79930000
    93  C          0.34177150       0.62733000       0.21202120
    94  C          0.15822850       0.12733000       0.28797880
    95  C          0.65822850       0.37267000       0.78797880
    96  C          0.84177150       0.87267000       0.71202120
    97  H          0.40380000       0.63060000       0.23600000
    98  H          0.09620000       0.13060000       0.26400000
    99  H          0.59620000       0.36940000       0.76400000
   100  H          0.90380000       0.86940000       0.73600000
   101  C          0.12388170       0.66543000       0.25624140
   102  C          0.37611830       0.16543000       0.24375860
   103  C          0.87611830       0.33457000       0.74375860
   104  C          0.62388170       0.83457000       0.75624140
   105  C          0.35520140       0.57783000       0.02237100
   106  C          0.14479860       0.07783000       0.47762900
   107  C          0.64479860       0.42217000       0.97762900
   108  C          0.85520140       0.92217000       0.52237100
   109  H          0.40670000       0.62080000       0.00650000
   110  H          0.09330000       0.12080000       0.49350000
   111  H          0.59330000       0.37920000      -0.00650000
   112  H          0.90670000       0.87920000       0.50650000
   113  H          0.30400000       0.65490000       0.00370000
   114  H          0.19600000       0.15490000       0.49630000
   115  H          0.69600000       0.34510000      -0.00370000
   116  H          0.80400000       0.84510000       0.50370000
   117  C          0.33085140       0.40253000       0.99174900
   118  C          0.16914860       0.90253000       0.50825100
   119  C          0.66914860       0.59747000       0.00825100
   120  C          0.83085140       0.09747000       0.49174900
   121  C          0.38959150       0.26663000       0.01320120
   122  C          0.11040850       0.76663000       0.48679880
   123  C          0.61040850       0.73337000       0.98679880
   124  C          0.88959150       0.23337000       0.51320120
   125  H          0.44490000       0.28320000       0.04800000
   126  H          0.05510000       0.78320000       0.45200000
   127  H          0.55510000       0.71680000       0.95200000
   128  H          0.94490000       0.21680000       0.54800000
   129  C          0.36745140       0.10833000       0.98393890
   130  C          0.13254860       0.60833000       0.51606110
   131  C          0.63254860       0.89167000       0.01606110
   132  C          0.86745140       0.39167000       0.48393890
   133  H          0.40750000       0.01630000      -0.00130000
   134  H          0.09250000       0.51630000       0.50130000
   135  H          0.59250000      -0.01630000       0.00130000
   136  H          0.90750000       0.48370000       0.49870000
   137  C          0.28692140       0.08303000       0.93303900
   138  C          0.21307860       0.58303000       0.56696100
   139  C          0.71307860       0.91697000       0.06696100
   140  C          0.78692140       0.41697000       0.43303900
   141  C          0.22830140       0.21703000       0.91173890
   142  C          0.27169860       0.71703000       0.58826110
   143  C          0.77169860       0.78297000       0.08826110
   144  C          0.72830140       0.28297000       0.41173890
   145  C          0.25052140       0.37653000       0.94141890
   146  C          0.24947860       0.87653000       0.55858110
   147  C          0.74947860       0.62347000       0.05858110
   148  C          0.75052140       0.12347000       0.44141890
   149  H          0.21010000       0.46810000       0.92690000
   150  H          0.28990000       0.96810000       0.57310000
   151  H          0.78990000       0.53190000       0.07310000
   152  H          0.71010000       0.03190000       0.42690000
   153  H          0.23416000       0.94370000       0.75569000
   154  H          0.26584000       0.44370000       0.74431000
   155  H          0.76584000       0.05630000       0.24431000
   156  H          0.73416000       0.55630000       0.25569000
   157  H          0.32171400       0.04021700       0.78618700
   158  H          0.17828600       0.54021700       0.71381300
   159  H          0.67828600       0.95978300       0.21381300
   160  H          0.82171400       0.45978300       0.28618700
   161  O          0.05003110       0.21752000       0.09693800
   162  O          0.44996890       0.71752000       0.40306200
   163  O          0.94996890       0.78248000       0.90306200
   164  O          0.55003110       0.28248000       0.59693800
   165  O          0.93229870       0.36783000       0.03644100
   166  O          0.56770130       0.86783000       0.46355900
   167  O          0.06770130       0.63217000       0.96355900
   168  O          0.43229870       0.13217000       0.53644100
   169  C          0.15028190       0.05824000       0.04933160
   170  C          0.34971810       0.55824000       0.45066840
   171  C          0.84971810       0.94176000       0.95066840
   172  C          0.65028190       0.44176000       0.54933160
   173  H          0.16960000       0.03330000       0.00660000
   174  H          0.33040000       0.53330000       0.49340000
   175  H          0.83040000       0.96670000      -0.00660000
   176  H          0.66960000       0.46670000       0.50660000
   177  H          0.12920000       0.95410000       0.06680000
   178  H          0.37080000       0.45410000       0.43320000
   179  H          0.87080000       0.04590000       0.93320000
   180  H          0.62920000       0.54590000       0.56680000
   181  H          0.20080000       0.10430000       0.08600000
   182  H          0.29920000       0.60430000       0.41400000
   183  H          0.79920000       0.89570000       0.91400000
   184  H          0.70080000       0.39570000       0.58600000
   185  C          0.07518180       0.18603000       0.03188130
   186  C          0.42481820       0.68603000       0.46811870
   187  C          0.92481820       0.81397000       0.96811870
   188  C          0.57518180       0.31397000       0.53188130
   189  H          0.09550000       0.29190000       0.01410000
   190  H          0.40450000       0.79190000       0.48590000
   191  H          0.90450000       0.70810000       0.98590000
   192  H          0.59550000       0.20810000       0.51410000
   193  H          0.02350000       0.14100000      -0.00500000
   194  H          0.47650000       0.64100000       0.50500000
   195  H          0.97650000       0.85900000       0.00500000
   196  H          0.52350000       0.35900000       0.49500000
   197  C          0.97546840       0.30903000       0.09143130
   198  C          0.52453160       0.80903000       0.40856870
   199  C          0.02453160       0.69097000       0.90856870
   200  C          0.47546840       0.19097000       0.59143130
   201  C          0.95521830       0.32733000       0.16133140
   202  C          0.54478170       0.82733000       0.33866860
   203  C          0.04478170       0.67267000       0.83866860
   204  C          0.45521830       0.17267000       0.66133140
   205  H          0.90740000       0.41070000       0.15740000
   206  H          0.59260000       0.91070000       0.34260000
   207  H          0.09260000       0.58930000       0.84260000
   208  H          0.40740000       0.08930000       0.65740000
   209  H          0.00910000       0.36510000       0.19690000
   210  H          0.49090000       0.86510000       0.30310000
   211  H         -0.00910000       0.63490000       0.80310000
   212  H          0.50910000       0.13490000       0.69690000
   213  H          0.93590000       0.21800000       0.17570000
   214  H          0.56410000       0.71800000       0.32430000
   215  H          0.06410000       0.78200000       0.82430000
   216  H          0.43590000       0.28200000       0.67570000
