data_BIYGOH
_symmetry_space_group_name_H-M    'P1'
_symmetry_Int_Tables_number       1
loop_
_symmetry_equiv_pos_site_id
_symmetry_equiv_pos_as_xyz
1 x,y,z
_cell_length_a                   33.5214
_cell_length_b                   4.9625016
_cell_length_c                   19.4662
_cell_angle_alpha                90.0
_cell_angle_beta                 135.08319
_cell_angle_gamma                90.0
loop_
_atom_site_label
_atom_site_type_symbol
_atom_site_fract_x
_atom_site_fract_y
_atom_site_fract_z
     1  C          0.47317900       0.38064000       0.52401160
     2  C          0.52682100       0.38064000       0.97598840
     3  C          0.97317900       0.88064000       0.52401160
     4  C          0.02682100       0.88064000       0.97598840
     5  C          0.52682100       0.61936000       0.47598840
     6  C          0.47317900       0.61936000       0.02401160
     7  C          0.02682100       0.11936000       0.47598840
     8  C          0.97317900       0.11936000       0.02401160
     9  C          0.44740800       0.58144000       0.45506150
    10  C          0.55259200       0.58144000       0.04493850
    11  C          0.94740800       0.08144000       0.45506150
    12  C          0.05259200       0.08144000       0.04493850
    13  C          0.55259200       0.41856000       0.54493850
    14  C          0.44740800       0.41856000       0.95506150
    15  C          0.05259200       0.91856000       0.54493850
    16  C          0.94740800       0.91856000       0.95506150
    17  C          0.52618900       0.30184000       0.56817160
    18  C          0.47381100       0.30184000       0.93182840
    19  C          0.02618900       0.80184000       0.56817160
    20  C          0.97381100       0.80184000       0.93182840
    21  C          0.47381100       0.69816000       0.43182840
    22  C          0.52618900       0.69816000       0.06817160
    23  C          0.97381100       0.19816000       0.43182840
    24  C          0.02618900       0.19816000       0.06817160
    25  F          0.39531500       0.66643000       0.40807100
    26  F          0.60468500       0.66643000       0.09192900
    27  F          0.89531500       0.16643000       0.40807100
    28  F          0.10468500       0.16643000       0.09192900
    29  F          0.60468500       0.33357000       0.59192900
    30  F          0.39531500       0.33357000       0.90807100
    31  F          0.10468500       0.83357000       0.59192900
    32  F          0.89531500       0.83357000       0.90807100
    33  F          0.55368500       0.10553000       0.63581100
    34  F          0.44631500       0.10553000       0.86418900
    35  F          0.05368500       0.60553000       0.63581100
    36  F          0.94631500       0.60553000       0.86418900
    37  F          0.44631500       0.89447000       0.36418900
    38  F          0.55368500       0.89447000       0.13581100
    39  F          0.94631500       0.39447000       0.36418900
    40  F          0.05368500       0.39447000       0.13581100
    41  I          0.43275200       0.21320300       0.55934200
    42  I          0.56724800       0.21320300       0.94065800
    43  I          0.93275200       0.71320300       0.55934200
    44  I          0.06724800       0.71320300       0.94065800
    45  I          0.56724800       0.78679700       0.44065800
    46  I          0.43275200       0.78679700       0.05934200
    47  I          0.06724800       0.28679700       0.44065800
    48  I          0.93275200       0.28679700       0.05934200
    49  C          0.33842900       0.80434000       0.54943160
    50  C          0.66157100       0.80434000       0.95056840
    51  C          0.83842900       0.30434000       0.54943160
    52  C          0.16157100       0.30434000       0.95056840
    53  C          0.66157100       0.19566000       0.45056840
    54  C          0.33842900       0.19566000       0.04943160
    55  C          0.16157100       0.69566000       0.45056840
    56  C          0.83842900       0.69566000       0.04943160
    57  C          0.28501900       0.75164000       0.44618160
    58  C          0.71498100       0.75164000       0.05381840
    59  C          0.78501900       0.25164000       0.44618160
    60  C          0.21498100       0.25164000       0.05381840
    61  C          0.71498100       0.24836000       0.55381840
    62  C          0.28501900       0.24836000       0.94618160
    63  C          0.21498100       0.74836000       0.55381840
    64  C          0.78501900       0.74836000       0.94618160
    65  C          0.24784900       0.54874000       0.42008170
    66  C          0.75215100       0.54874000       0.07991830
    67  C          0.74784900       0.04874000       0.42008170
    68  C          0.25215100       0.04874000       0.07991830
    69  C          0.75215100       0.45126000       0.57991830
    70  C          0.24784900       0.45126000       0.92008170
    71  C          0.25215100       0.95126000       0.57991830
    72  C          0.74784900       0.95126000       0.92008170
    73  H          0.25650000       0.43860000       0.46780000
    74  H          0.74350000       0.43860000       0.03220000
    75  H          0.75650000       0.93860000       0.46780000
    76  H          0.24350000       0.93860000       0.03220000
    77  H          0.74350000       0.56140000       0.53220000
    78  H          0.25650000       0.56140000       0.96780000
    79  H          0.24350000       0.06140000       0.53220000
    80  H          0.75650000       0.06140000       0.96780000
    81  C          0.19793900       0.50925000       0.32331170
    82  C          0.80206100       0.50925000       0.17668830
    83  C          0.69793900       0.00925000       0.32331170
    84  C          0.30206100       0.00925000       0.17668830
    85  C          0.80206100       0.49075000       0.67668830
    86  C          0.19793900       0.49075000       0.82331170
    87  C          0.30206100      -0.00925000       0.67668830
    88  C          0.69793900      -0.00925000       0.82331170
    89  H          0.17290000       0.37480000       0.30650000
    90  H          0.82710000       0.37480000       0.19350000
    91  H          0.67290000       0.87480000       0.30650000
    92  H          0.32710000       0.87480000       0.19350000
    93  H          0.82710000       0.62520000       0.69350000
    94  H          0.17290000       0.62520000       0.80650000
    95  H          0.32710000       0.12520000       0.69350000
    96  H          0.67290000       0.12520000       0.80650000
    97  C          0.18538900       0.66845000       0.25233170
    98  C          0.81461100       0.66845000       0.24766830
    99  C          0.68538900       0.16845000       0.25233170
   100  C          0.31461100       0.16845000       0.24766830
   101  C          0.81461100       0.33155000       0.74766830
   102  C          0.18538900       0.33155000       0.75233170
   103  C          0.31461100       0.83155000       0.74766830
   104  C          0.68538900       0.83155000       0.75233170
   105  H          0.15210000       0.63970000       0.18740000
   106  H          0.84790000       0.63970000       0.31260000
   107  H          0.65210000       0.13970000       0.18740000
   108  H          0.34790000       0.13970000       0.31260000
   109  H          0.84790000       0.36030000       0.81260000
   110  H          0.15210000       0.36030000       0.68740000
   111  H          0.34790000       0.86030000       0.81260000
   112  H          0.65210000       0.86030000       0.68740000
   113  C          0.22202900       0.87155000       0.27707170
   114  C          0.77797100       0.87155000       0.22292830
   115  C          0.72202900       0.37155000       0.27707170
   116  C          0.27797100       0.37155000       0.22292830
   117  C          0.77797100       0.12845000       0.72292830
   118  C          0.22202900       0.12845000       0.77707170
   119  C          0.27797100       0.62845000       0.72292830
   120  C          0.72202900       0.62845000       0.77707170
   121  H          0.21350000      -0.02120000       0.22890000
   122  H          0.78650000      -0.02120000       0.27110000
   123  H          0.71350000       0.47880000       0.22890000
   124  H          0.28650000       0.47880000       0.27110000
   125  H          0.78650000       0.02120000       0.77110000
   126  H          0.21350000       0.02120000       0.72890000
   127  H          0.28650000       0.52120000       0.77110000
   128  H          0.71350000       0.52120000       0.72890000
   129  C          0.27138900       0.91414000       0.37374160
   130  C          0.72861100       0.91414000       0.12625840
   131  C          0.77138900       0.41414000       0.37374160
   132  C          0.22861100       0.41414000       0.12625840
   133  C          0.72861100       0.08586000       0.62625840
   134  C          0.27138900       0.08586000       0.87374160
   135  C          0.22861100       0.58586000       0.62625840
   136  C          0.77138900       0.58586000       0.87374160
   137  H          0.29560000       0.05260000       0.39040000
   138  H          0.70440000       0.05260000       0.10960000
   139  H          0.79560000       0.55260000       0.39040000
   140  H          0.20440000       0.55260000       0.10960000
   141  H          0.70440000       0.94740000       0.60960000
   142  H          0.29560000       0.94740000       0.89040000
   143  H          0.20440000       0.44740000       0.60960000
   144  H          0.79560000       0.44740000       0.89040000
   145  C          0.41531100       0.62105000       0.71106160
   146  C          0.58468900       0.62105000       0.78893840
   147  C          0.91531100       0.12105000       0.71106160
   148  C          0.08468900       0.12105000       0.78893840
   149  C          0.58468900       0.37895000       0.28893840
   150  C          0.41531100       0.37895000       0.21106160
   151  C          0.08468900       0.87895000       0.28893840
   152  C          0.91531100       0.87895000       0.21106160
   153  H          0.44080000       0.73450000       0.71700000
   154  H          0.55920000       0.73450000       0.78300000
   155  H          0.94080000       0.23450000       0.71700000
   156  H          0.05920000       0.23450000       0.78300000
   157  H          0.55920000       0.26550000       0.28300000
   158  H          0.44080000       0.26550000       0.21700000
   159  H          0.05920000       0.76550000       0.28300000
   160  H          0.94080000       0.76550000       0.21700000
   161  H          0.43200000       0.44620000       0.73730000
   162  H          0.56800000       0.44620000       0.76270000
   163  H          0.93200000       0.94620000       0.73730000
   164  H          0.06800000       0.94620000       0.76270000
   165  H          0.56800000       0.55380000       0.26270000
   166  H          0.43200000       0.55380000       0.23730000
   167  H          0.06800000       0.05380000       0.26270000
   168  H          0.93200000       0.05380000       0.23730000
   169  H          0.40790000       0.69940000       0.74620000
   170  H          0.59210000       0.69940000       0.75380000
   171  H          0.90790000       0.19940000       0.74620000
   172  H          0.09210000       0.19940000       0.75380000
   173  H          0.59210000       0.30060000       0.25380000
   174  H          0.40790000       0.30060000       0.24620000
   175  H          0.09210000       0.80060000       0.25380000
   176  H          0.90790000       0.80060000       0.24620000
   177  N          0.36280800       0.59524000       0.60933140
   178  N          0.63719200       0.59524000       0.89066860
   179  N          0.86280800       0.09524000       0.60933140
   180  N          0.13719200       0.09524000       0.89066860
   181  N          0.63719200       0.40476000       0.39066860
   182  N          0.36280800       0.40476000       0.10933140
   183  N          0.13719200       0.90476000       0.39066860
   184  N          0.86280800       0.90476000       0.10933140
   185  H          0.35231000       0.44750000       0.58971800
   186  H          0.64769000       0.44750000       0.91028200
   187  H          0.85231000       0.94750000       0.58971800
   188  H          0.14769000       0.94750000       0.91028200
   189  H          0.64769000       0.55250000       0.41028200
   190  H          0.35231000       0.55250000       0.08971800
   191  H          0.14769000       0.05250000       0.41028200
   192  H          0.85231000       0.05250000       0.08971800
   193  O          0.35886600       0.03393000       0.57780110
   194  O          0.64113400       0.03393000       0.92219890
   195  O          0.85886600       0.53393000       0.57780110
   196  O          0.14113400       0.53393000       0.92219890
   197  O          0.64113400       0.96607000       0.42219890
   198  O          0.35886600       0.96607000       0.07780110
   199  O          0.14113400       0.46607000       0.42219890
   200  O          0.85886600       0.46607000       0.07780110
