data_BIYYER
_symmetry_space_group_name_H-M    'P1'
_symmetry_Int_Tables_number       1
loop_
_symmetry_equiv_pos_site_id
_symmetry_equiv_pos_as_xyz
1 x,y,z
_cell_length_a                   33.40105
_cell_length_b                   3.866601
_cell_length_c                   11.42262
_cell_angle_alpha                90.0
_cell_angle_beta                 94.67501
_cell_angle_gamma                90.0
loop_
_atom_site_label
_atom_site_type_symbol
_atom_site_fract_x
_atom_site_fract_y
_atom_site_fract_z
     1  N          0.50000000       0.40829000       0.75000000
     2  N         -0.00000000       0.90829000       0.75000000
     3  N          0.50000000       0.59171000       0.25000000
     4  N         -0.00000000       0.09171000       0.25000000
     5  H          0.51721100       0.54190000       0.71530000
     6  H          0.48278900       0.54190000       0.78470000
     7  H          0.01721100       0.04190000       0.71530000
     8  H          0.98278900       0.04190000       0.78470000
     9  H          0.48278900       0.45810000       0.28470000
    10  H          0.51721100       0.45810000       0.21530000
    11  H          0.98278900       0.95810000       0.28470000
    12  H          0.01721100       0.95810000       0.21530000
    13  H          0.48689000       0.28290000       0.70130000
    14  H          0.51311000       0.28290000       0.79870000
    15  H          0.98689000       0.78290000       0.70130000
    16  H          0.01311000       0.78290000       0.79870000
    17  H          0.51311000       0.71710000       0.29870000
    18  H          0.48689000       0.71710000       0.20130000
    19  H          0.01311000       0.21710000       0.29870000
    20  H          0.98689000       0.21710000       0.20130000
    21  Br         0.72479200       0.54510700       0.35633200
    22  Br         0.27520800       0.54510700       0.14366800
    23  Br         0.22479200       0.04510700       0.35633200
    24  Br         0.77520800       0.04510700       0.14366800
    25  Br         0.27520800       0.45489300       0.64366800
    26  Br         0.72479200       0.45489300       0.85633200
    27  Br         0.77520800       0.95489300       0.64366800
    28  Br         0.22479200       0.95489300       0.85633200
    29  O          0.53233600      -0.02945000       0.45653160
    30  O          0.46766400      -0.02945000       0.04346840
    31  O          0.03233600       0.47055000       0.45653160
    32  O          0.96766400       0.47055000       0.04346840
    33  O          0.46766400       0.02945000       0.54346840
    34  O          0.53233600       0.02945000       0.95653160
    35  O          0.96766400       0.52945000       0.54346840
    36  O          0.03233600       0.52945000       0.95653160
    37  O          0.55440500       0.82175000       0.63936130
    38  O          0.44559500       0.82175000       0.86063870
    39  O          0.05440500       0.32175000       0.63936130
    40  O          0.94559500       0.32175000       0.86063870
    41  O          0.44559500       0.17825000       0.36063870
    42  O          0.55440500       0.17825000       0.13936130
    43  O          0.94559500       0.67825000       0.36063870
    44  O          0.05440500       0.67825000       0.13936130
    45  C          0.60056600       0.80686000       0.49198180
    46  C          0.39943400       0.80686000       0.00801820
    47  C          0.10056600       0.30686000       0.49198180
    48  C          0.89943400       0.30686000       0.00801820
    49  C          0.39943400       0.19314000       0.50801820
    50  C          0.60056600       0.19314000      -0.00801820
    51  C          0.89943400       0.69314000       0.50801820
    52  C          0.10056600       0.69314000      -0.00801820
    53  C          0.60907700       0.90226000       0.37872000
    54  C          0.39092300       0.90226000       0.12128000
    55  C          0.10907700       0.40226000       0.37872000
    56  C          0.89092300       0.40226000       0.12128000
    57  C          0.39092300       0.09774000       0.62128000
    58  C          0.60907700       0.09774000       0.87872000
    59  C          0.89092300       0.59774000       0.62128000
    60  C          0.10907700       0.59774000       0.87872000
    61  H          0.58913900       0.01363800       0.32793600
    62  H          0.41086100       0.01363800       0.17206400
    63  H          0.08913900       0.51363800       0.32793600
    64  H          0.91086100       0.51363800       0.17206400
    65  H          0.41086100      -0.01363800       0.67206400
    66  H          0.58913900      -0.01363800       0.82793600
    67  H          0.91086100       0.48636200       0.67206400
    68  H          0.08913900       0.48636200       0.82793600
    69  C          0.56018700       0.86777000       0.53492000
    70  C          0.43981300       0.86777000       0.96508000
    71  C          0.06018700       0.36777000       0.53492000
    72  C          0.93981300       0.36777000       0.96508000
    73  C          0.43981300       0.13223000       0.46508000
    74  C          0.56018700       0.13223000       0.03492000
    75  C          0.93981300       0.63223000       0.46508000
    76  C          0.06018700       0.63223000       0.03492000
    77  C          0.67524600       0.66676000       0.41501190
    78  C          0.32475400       0.66676000       0.08498810
    79  C          0.17524600       0.16676000       0.41501190
    80  C          0.82475400       0.16676000       0.08498810
    81  C          0.32475400       0.33324000       0.58498810
    82  C          0.67524600       0.33324000       0.91501190
    83  C          0.82475400       0.83324000       0.58498810
    84  C          0.17524600       0.83324000       0.91501190
    85  C          0.63032700       0.64666000       0.56639190
    86  C          0.36967300       0.64666000       0.93360810
    87  C          0.13032700       0.14666000       0.56639190
    88  C          0.86967300       0.14666000       0.93360810
    89  C          0.36967300       0.35334000       0.43360810
    90  C          0.63032700       0.35334000       0.06639190
    91  C          0.86967300       0.85334000       0.43360810
    92  C          0.13032700       0.85334000       0.06639190
    93  H          0.62469800       0.58628400       0.64399000
    94  H          0.37530200       0.58628400       0.85601000
    95  H          0.12469800       0.08628400       0.64399000
    96  H          0.87530200       0.08628400       0.85601000
    97  H          0.37530200       0.41371600       0.35601000
    98  H          0.62469800       0.41371600       0.14399000
    99  H          0.87530200       0.91371600       0.35601000
   100  H          0.12469800       0.91371600       0.14399000
   101  C          0.64665700       0.83426000       0.34043190
   102  C          0.35334300       0.83426000       0.15956810
   103  C          0.14665700       0.33426000       0.34043190
   104  C          0.85334300       0.33426000       0.15956810
   105  C          0.35334300       0.16574000       0.65956810
   106  C          0.64665700       0.16574000       0.84043190
   107  C          0.85334300       0.66574000       0.65956810
   108  C          0.14665700       0.66574000       0.84043190
   109  H          0.65273200       0.90161400       0.26389800
   110  H          0.34726800       0.90161400       0.23610200
   111  H          0.15273200       0.40161400       0.26389800
   112  H          0.84726800       0.40161400       0.23610200
   113  H          0.34726800       0.09838600       0.73610200
   114  H          0.65273200       0.09838600       0.76389800
   115  H          0.84726800       0.59838600       0.73610200
   116  H          0.15273200       0.59838600       0.76389800
   117  C          0.66772700       0.57446000       0.52912000
   118  C          0.33227300       0.57446000       0.97088000
   119  C          0.16772700       0.07446000       0.52912000
   120  C          0.83227300       0.07446000       0.97088000
   121  C          0.33227300       0.42554000       0.47088000
   122  C          0.66772700       0.42554000       0.02912000
   123  C          0.83227300       0.92554000       0.47088000
   124  C          0.16772700       0.92554000       0.02912000
   125  H          0.68779900       0.46478300       0.57987800
   126  H          0.31220100       0.46478300       0.92012200
   127  H          0.18779900      -0.03521700       0.57987800
   128  H          0.81220100      -0.03521700       0.92012200
   129  H          0.31220100       0.53521700       0.42012200
   130  H          0.68779900       0.53521700       0.07987800
   131  H          0.81220100       0.03521700       0.42012200
   132  H          0.18779900       0.03521700       0.07987800
   133  H          0.51211800      -0.00384000       0.48860000
   134  H          0.48788200      -0.00384000       0.01140000
   135  H          0.01211800       0.49616000       0.48860000
   136  H          0.98788200       0.49616000       0.01140000
   137  H          0.48788200       0.00384000       0.51140000
   138  H          0.51211800       0.00384000      -0.01140000
   139  H          0.98788200       0.50384000       0.51140000
   140  H          0.01211800       0.50384000      -0.01140000
