data_BIZNAB
_symmetry_space_group_name_H-M    'P1'
_symmetry_Int_Tables_number       1
loop_
_symmetry_equiv_pos_site_id
_symmetry_equiv_pos_as_xyz
1 x,y,z
_cell_length_a                   8.763018
_cell_length_b                   14.5033
_cell_length_c                   15.7753
_cell_angle_alpha                90.0
_cell_angle_beta                 98.413
_cell_angle_gamma                90.0
loop_
_atom_site_label
_atom_site_type_symbol
_atom_site_fract_x
_atom_site_fract_y
_atom_site_fract_z
     1  B          0.56707000       0.95405000       0.24574000
     2  B          0.93293000       0.45405000       0.25426000
     3  B          0.43293000       0.04595000       0.75426000
     4  B          0.06707000       0.54595000       0.74574000
     5  F          0.49957000       0.91674000       0.30734000
     6  F          0.00043000       0.41674000       0.19266000
     7  F          0.50043000       0.08326000       0.69266000
     8  F         -0.00043000       0.58326000       0.80734000
     9  F          0.50395000       0.93344000       0.16633000
    10  F         -0.00395000       0.43344000       0.33367000
    11  F          0.49605000       0.06656000       0.83367000
    12  F          0.00395000       0.56656000       0.66633000
    13  F          0.54625000       0.04803000       0.25773000
    14  F          0.95375000       0.54803000       0.24227000
    15  F          0.45375000       0.95197000       0.74227000
    16  F          0.04625000       0.45197000       0.75773000
    17  F          0.72444000       0.93603000       0.25842000
    18  F          0.77556000       0.43603000       0.24158000
    19  F          0.27556000       0.06397000       0.74158000
    20  F          0.22444000       0.56397000       0.75842000
    21  O          0.21535000       0.12673000       0.10753000
    22  O          0.28465000       0.62673000       0.39247000
    23  O          0.78465000       0.87327000       0.89247000
    24  O          0.71535000       0.37327000       0.60753000
    25  C          0.02089000       0.08614000       0.19225000
    26  C          0.47911000       0.58614000       0.30775000
    27  C          0.97911000       0.91386000       0.80775000
    28  C          0.52089000       0.41386000       0.69225000
    29  H          0.95950000       0.05640000       0.14360000
    30  H          0.54050000       0.55640000       0.35640000
    31  H          0.04050000       0.94360000       0.85640000
    32  H          0.45950000       0.44360000       0.64360000
    33  H          0.00370000       0.05410000       0.24400000
    34  H          0.49630000       0.55410000       0.25600000
    35  H         -0.00370000       0.94590000       0.75600000
    36  H          0.50370000       0.44590000       0.74400000
    37  O          0.06385000       0.14223000       0.93547000
    38  O          0.43615000       0.64223000       0.56453000
    39  O          0.93615000       0.85777000       0.06453000
    40  O          0.56385000       0.35777000       0.43547000
    41  C          0.18699000       0.08275000       0.18285000
    42  C          0.31301000       0.58275000       0.31715000
    43  C          0.81301000       0.91725000       0.81715000
    44  C          0.68699000       0.41725000       0.68285000
    45  H          0.24700000       0.11230000       0.23180000
    46  H          0.25300000       0.61230000       0.26820000
    47  H          0.75300000       0.88770000       0.76820000
    48  H          0.74700000       0.38770000       0.73180000
    49  H          0.21960000       0.01880000       0.18170000
    50  H          0.28040000       0.51880000       0.31830000
    51  H          0.78040000       0.98120000       0.81830000
    52  H          0.71960000       0.48120000       0.68170000
    53  O          0.84225000       0.28293000       0.90477000
    54  O          0.65775000       0.78293000       0.59523000
    55  O          0.15775000       0.71707000       0.09523000
    56  O          0.34225000       0.21707000       0.40477000
    57  C          0.23677000       0.06845000       0.04075000
    58  C          0.26323000       0.56845000       0.45925000
    59  C          0.76323000       0.93155000       0.95925000
    60  C          0.73677000       0.43155000       0.54075000
    61  H          0.16380000       0.01790000       0.03880000
    62  H          0.33620000       0.51790000       0.46120000
    63  H          0.83620000       0.98210000       0.96120000
    64  H          0.66380000       0.48210000       0.53880000
    65  H          0.33980000       0.04250000       0.05200000
    66  H          0.16020000       0.54250000       0.44800000
    67  H          0.66020000       0.95750000       0.94800000
    68  H          0.83980000       0.45750000       0.55200000
    69  O          0.73686000       0.24203000       0.06283000
    70  O          0.76314000       0.74203000       0.43717000
    71  O          0.26314000       0.75797000       0.93717000
    72  O          0.23686000       0.25797000       0.56283000
    73  C          0.21727000       0.11406000       0.95635000
    74  C          0.28273000       0.61406000       0.54365000
    75  C          0.78273000       0.88594000       0.04365000
    76  C          0.71727000       0.38594000       0.45635000
    77  H          0.28520000       0.16700000       0.95820000
    78  H          0.21480000       0.66700000       0.54180000
    79  H          0.71480000       0.83300000       0.04180000
    80  H          0.78520000       0.33300000       0.45820000
    81  H          0.24370000       0.07160000       0.91330000
    82  H          0.25630000       0.57160000       0.58670000
    83  H          0.75630000       0.92840000       0.08670000
    84  H          0.74370000       0.42840000       0.41330000
    85  O          0.97835000       0.17813000       0.19653000
    86  O          0.52165000       0.67813000       0.30347000
    87  O          0.02165000       0.82187000       0.80347000
    88  O          0.47835000       0.32187000       0.69653000
    89  C          0.03019000       0.18715000       0.85486000
    90  C          0.46981000       0.68715000       0.64514000
    91  C          0.96981000       0.81285000       0.14514000
    92  C          0.53019000       0.31285000       0.35486000
    93  H          0.04960000       0.14620000       0.80900000
    94  H          0.45040000       0.64620000       0.69100000
    95  H          0.95040000       0.85380000       0.19100000
    96  H          0.54960000       0.35380000       0.30900000
    97  H          0.09330000       0.24190000       0.85350000
    98  H          0.40670000       0.74190000       0.64650000
    99  H          0.90670000       0.75810000       0.14650000
   100  H          0.59330000       0.25810000       0.35350000
   101  C          0.86059000       0.21285000       0.84496000
   102  C          0.63941000       0.71285000       0.65504000
   103  C          0.13941000       0.78715000       0.15504000
   104  C          0.36059000       0.28715000       0.34496000
   105  H          0.82600000       0.23450000       0.78720000
   106  H          0.67400000       0.73450000       0.71280000
   107  H          0.17400000       0.76550000       0.21280000
   108  H          0.32600000       0.26550000       0.28720000
   109  H          0.79950000       0.15930000       0.85550000
   110  H          0.70050000       0.65930000       0.64450000
   111  H          0.20050000       0.84070000       0.14450000
   112  H          0.29950000       0.34070000       0.35550000
   113  C          0.68362000       0.29455000       0.91875000
   114  C          0.81638000       0.79455000       0.58125000
   115  C          0.31638000       0.70545000       0.08125000
   116  C          0.18362000       0.20545000       0.41875000
   117  H          0.61560000       0.28320000       0.86560000
   118  H          0.88440000       0.78320000       0.63440000
   119  H          0.38440000       0.71680000       0.13440000
   120  H          0.11560000       0.21680000       0.36560000
   121  H          0.66810000       0.35750000       0.93620000
   122  H          0.83190000       0.85750000       0.56380000
   123  H          0.33190000       0.64250000       0.06380000
   124  H          0.16810000       0.14250000       0.43620000
   125  C          0.64393000       0.23055000       0.98555000
   126  C          0.85607000       0.73055000       0.51445000
   127  C          0.35607000       0.76945000       0.01445000
   128  C          0.14393000       0.26945000       0.48555000
   129  H          0.53750000       0.24050000      -0.00660000
   130  H          0.96250000       0.74050000       0.50660000
   131  H          0.46250000       0.75950000       0.00660000
   132  H          0.03750000       0.25950000       0.49340000
   133  H          0.65330000       0.16760000       0.96630000
   134  H          0.84670000       0.66760000       0.53370000
   135  H          0.34670000       0.83240000       0.03370000
   136  H          0.15330000       0.33240000       0.46630000
   137  C          0.70823000       0.17965000       0.12595000
   138  C          0.79177000       0.67965000       0.37405000
   139  C          0.29177000       0.82035000       0.87405000
   140  C          0.20823000       0.32035000       0.62595000
   141  H          0.71520000       0.11720000       0.10460000
   142  H          0.78480000       0.61720000       0.39540000
   143  H          0.28480000       0.88280000       0.89540000
   144  H          0.21520000       0.38280000       0.60460000
   145  H          0.60460000       0.18880000       0.13890000
   146  H          0.89540000       0.68880000       0.36110000
   147  H          0.39540000       0.81120000       0.86110000
   148  H          0.10460000       0.31120000       0.63890000
   149  C          0.82052000       0.19135000       0.20524000
   150  C          0.67948000       0.69135000       0.29476000
   151  C          0.17948000       0.80865000       0.79476000
   152  C          0.32052000       0.30865000       0.70524000
   153  H          0.80890000       0.25310000       0.22700000
   154  H          0.69110000       0.75310000       0.27300000
   155  H          0.19110000       0.74690000       0.77300000
   156  H          0.30890000       0.24690000       0.72700000
   157  H          0.79410000       0.14830000       0.24780000
   158  H          0.70590000       0.64830000       0.25220000
   159  H          0.20590000       0.85170000       0.75220000
   160  H          0.29410000       0.35170000       0.74780000
   161  N          0.05904000       0.30313000       0.06183000
   162  N          0.44096000       0.80313000       0.43817000
   163  N          0.94096000       0.69687000       0.93817000
   164  N          0.55904000       0.19687000       0.56183000
   165  H          0.06750000       0.27120000       0.10820000
   166  H          0.43250000       0.77120000       0.39180000
   167  H          0.93250000       0.72880000       0.89180000
   168  H          0.56750000       0.22880000       0.60820000
   169  H          0.97440000       0.30180000       0.02650000
   170  H          0.52560000       0.80180000       0.47350000
   171  H          0.02560000       0.69820000       0.97350000
   172  H          0.47440000       0.19820000       0.52650000
   173  C          0.32336000       0.36254000       0.09863000
   174  C          0.17664000       0.86254000       0.40137000
   175  C          0.67664000       0.63746000       0.90137000
   176  C          0.82336000       0.13746000       0.59863000
   177  H          0.33350000       0.32750000       0.14850000
   178  H          0.16650000       0.82750000       0.35150000
   179  H          0.66650000       0.67250000       0.85150000
   180  H          0.83350000       0.17250000       0.64850000
   181  C          0.44525000       0.41674000       0.08173000
   182  C          0.05475000       0.91674000       0.41827000
   183  C          0.55475000       0.58326000       0.91827000
   184  C          0.94525000       0.08326000       0.58173000
   185  H          0.53650000       0.41660000       0.12010000
   186  H          0.96350000       0.91660000       0.37990000
   187  H          0.46350000       0.58340000       0.87990000
   188  H          0.03650000       0.08340000       0.62010000
   189  C          0.43474000       0.47093000       0.00943000
   190  C          0.06526000       0.97093000       0.49057000
   191  C          0.56526000       0.52907000       0.99057000
   192  C          0.93474000       0.02907000       0.50943000
   193  C          0.29576000       0.46744000       0.95436000
   194  C          0.20424000       0.96744000       0.54564000
   195  C          0.70424000       0.53256000       0.04564000
   196  C          0.79576000       0.03256000       0.45436000
   197  H          0.28480000       0.50220000       0.90440000
   198  H          0.21520000       0.00220000       0.59560000
   199  H          0.71520000       0.49780000       0.09560000
   200  H          0.78480000      -0.00220000       0.40440000
   201  C          0.17306000       0.41384000       0.97126000
   202  C          0.32694000       0.91384000       0.52874000
   203  C          0.82694000       0.58616000       0.02874000
   204  C          0.67306000       0.08616000       0.47126000
   205  H          0.08040000       0.41470000       0.93400000
   206  H          0.41960000       0.91470000       0.56600000
   207  H          0.91960000       0.58530000       0.06600000
   208  H          0.58040000       0.08530000       0.43400000
   209  C          0.18805000       0.35963000       0.04313000
   210  C          0.31195000       0.85963000       0.45687000
   211  C          0.81195000       0.64037000       0.95687000
   212  C          0.68805000       0.14037000       0.54313000
