data_BOBVUL
_symmetry_space_group_name_H-M    'P1'
_symmetry_Int_Tables_number       1
loop_
_symmetry_equiv_pos_site_id
_symmetry_equiv_pos_as_xyz
1 x,y,z
_cell_length_a                   8.40932
_cell_length_b                   8.65813
_cell_length_c                   8.72673
_cell_angle_alpha                105.95901
_cell_angle_beta                 114.8472
_cell_angle_gamma                96.57401
loop_
_atom_site_label
_atom_site_type_symbol
_atom_site_fract_x
_atom_site_fract_y
_atom_site_fract_z
     1  P          0.72503500       0.38605400       0.94600500
     2  P          0.27496500       0.61394600       0.05399500
     3  H          0.78320000       0.28220000       0.01820000
     4  H          0.21680000       0.71780000      -0.01820000
     5  H          0.66920000       0.45520000       0.05920000
     6  H          0.33080000       0.54480000       0.94080000
     7  C          0.49671160       0.24905150       0.76638160
     8  C          0.50328840       0.75094850       0.23361840
     9  O          0.36828120       0.31190110       0.72163120
    10  O          0.63171880       0.68809890       0.27836880
    11  N          0.48541170       0.08993140       0.68909160
    12  N          0.51458830       0.91006860       0.31090840
    13  H          0.57920000       0.05320000       0.71320000
    14  H          0.42080000       0.94680000       0.28680000
    15  H          0.38320000       0.02620000       0.59420000
    16  H          0.61680000       0.97380000       0.40580000
    17  O          0.21007120       0.08550100       0.24767120
    18  O          0.78992880       0.91449900       0.75232880
    19  O          0.13295120       0.85565890       0.40511120
    20  O          0.86704880       0.14434110       0.59488880
    21  O          0.41287120       0.71264890       0.57272120
    22  O          0.58712880       0.28735110       0.42727880
    23  C          0.04778180       0.05103180       0.26222000
    24  C          0.95221820       0.94896820       0.73778000
    25  H          0.06420000       0.12371900       0.38020000
    26  H          0.93580000       0.87628100       0.61980000
    27  H          0.94280000       0.06520000       0.16420000
    28  H          0.05720000       0.93480000       0.83580000
    29  C          0.00023180       0.87364830       0.24763180
    30  C         -0.00023180       0.12635170       0.75236820
    31  H          0.88180000       0.84380000       0.23620000
    32  H          0.11820000       0.15620000       0.76380000
    33  H          0.00020000       0.79580000       0.13620000
    34  H         -0.00020000       0.20420000       0.86380000
    35  C          0.09878180       0.69079840       0.40506190
    36  C          0.90121820       0.30920160       0.59493810
    37  H         -0.02320000       0.65768100       0.39620000
    38  H          0.02320000       0.34231900       0.60380000
    39  H          0.09920000       0.61048100       0.30020000
    40  H          0.90080000       0.38951900       0.69980000
    41  C          0.24471180       0.68572830       0.57629190
    42  C          0.75528820       0.31427170       0.42370810
    43  H          0.25071900       0.77018100       0.68120000
    44  H          0.74928100       0.22981900       0.31880000
    45  H          0.21120000       0.57580000       0.58220000
    46  H          0.78880000       0.42420000       0.41780000
    47  C          0.55757190       0.70822820       0.73093190
    48  C          0.44242810       0.29177180       0.26906810
    49  H          0.56820000       0.79218100       0.84020000
    50  H          0.43180000       0.20781900       0.15980000
    51  H          0.53320000       0.60180000       0.73820000
    52  H          0.46680000       0.39820000       0.26180000
    53  C          0.73048190       0.74171840       0.71977190
    54  C          0.26951810       0.25828160       0.28022810
    55  H          0.82520000       0.71080000       0.80920000
    56  H          0.17480000       0.28920000       0.19080000
    57  H          0.71420000       0.67598100       0.60120000
    58  H          0.28580000       0.32401900       0.39880000
