data_BOCGAB
_symmetry_space_group_name_H-M    'P1'
_symmetry_Int_Tables_number       1
loop_
_symmetry_equiv_pos_site_id
_symmetry_equiv_pos_as_xyz
1 x,y,z
_cell_length_a                   8.17101
_cell_length_b                   12.04301
_cell_length_c                   23.8182
_cell_angle_alpha                90.0
_cell_angle_beta                 90.0
_cell_angle_gamma                90.0
loop_
_atom_site_label
_atom_site_type_symbol
_atom_site_fract_x
_atom_site_fract_y
_atom_site_fract_z
     1  Br         0.71962900       0.25663800       0.29037300
     2  Br         0.78037100       0.74336200       0.79037300
     3  Br         0.28037100       0.75663800       0.20962700
     4  Br         0.21962900       0.24336200       0.70962700
     5  Br         0.66821120       0.34683700       0.16197400
     6  Br         0.83178880       0.65316300       0.66197400
     7  Br         0.33178880       0.84683700       0.33802600
     8  Br         0.16821120       0.15316300       0.83802600
     9  Br         0.38234140       0.54927900       0.12079400
    10  Br         0.11765860       0.45072100       0.62079400
    11  Br         0.61765860       0.04927900       0.37920600
    12  Br         0.88234140       0.95072100       0.87920600
    13  F          0.71361400       0.35516000       0.99258000
    14  F          0.78638600       0.64484000       0.49258000
    15  F          0.28638600       0.85516000       0.50742000
    16  F          0.21361400       0.14484000       0.00742000
    17  F          0.73078000       0.49704000       0.07962000
    18  F          0.76922000       0.50296000       0.57962000
    19  F          0.26922000      -0.00296000       0.42038000
    20  F          0.23078000       0.00296000       0.92038000
    21  F          0.63561300       0.22345000       0.04583000
    22  F          0.86438700       0.77655000       0.54583000
    23  F          0.36438700       0.72345000       0.45417000
    24  F          0.13561300       0.27655000       0.95417000
    25  C          0.71220000       0.31608000       0.04494000
    26  C          0.78780000       0.68392000       0.54494000
    27  C          0.28780000       0.81608000       0.45506000
    28  C          0.21220000       0.18392000       0.95506000
    29  F          0.87031300       0.29648000       0.05734000
    30  F          0.62968700       0.70352000       0.55734000
    31  F          0.12968700       0.79648000       0.44266000
    32  F          0.37031300       0.20352000       0.94266000
    33  C          0.64081300       0.40477000       0.08533000
    34  C          0.85918700       0.59523000       0.58533000
    35  C          0.35918700       0.90477000       0.41467000
    36  C          0.14081300       0.09523000       0.91467000
    37  C          0.46391500       0.43241100       0.07404000
    38  C          0.03608500       0.56758900       0.57404000
    39  C          0.53608500       0.93241100       0.42596000
    40  C          0.96391500       0.06758900       0.92596000
    41  F          0.45031200       0.46307000       0.01952000
    42  F          0.04968800       0.53693000       0.51952000
    43  F          0.54968800       0.96307000       0.48048000
    44  F          0.95031200       0.03693000       0.98048000
    45  F          0.36929000       0.34136000       0.07953000
    46  F          0.13071000       0.65864000       0.57953000
    47  F          0.63071000       0.84136000       0.42047000
    48  F          0.86929000       0.15864000       0.92047000
    49  N          0.71117000       0.77425000       0.19132000
    50  N          0.78883000       0.22575000       0.69132000
    51  N          0.28883000       0.27425000       0.30868000
    52  N          0.21117000       0.72575000       0.80868000
    53  H          0.61370000       0.78620000       0.17380000
    54  H          0.88630000       0.21380000       0.67380000
    55  H          0.38630000       0.28620000       0.32620000
    56  H          0.11370000       0.71380000       0.82620000
    57  C          0.69551000       0.66377000       0.21964000
    58  C          0.80449000       0.33623000       0.71964000
    59  C          0.30449000       0.16377000       0.28036000
    60  C          0.19551000       0.83623000       0.78036000
    61  H          0.69050000       0.60600000       0.19130000
    62  H          0.80950000       0.39400000       0.69130000
    63  H          0.30950000       0.10600000       0.30870000
    64  H          0.19050000       0.89400000       0.80870000
    65  H          0.59380000       0.66180000       0.24060000
    66  H          0.90620000       0.33820000       0.74060000
    67  H          0.40620000       0.16180000       0.25940000
    68  H          0.09380000       0.83820000       0.75940000
    69  C          0.83611200       0.63979000       0.25904000
    70  C          0.66388800       0.36021000       0.75904000
    71  C          0.16388800       0.13979000       0.24096000
    72  C          0.33611200       0.86021000       0.74096000
    73  H          0.81870000       0.56880000       0.27740000
    74  H          0.68130000       0.43120000       0.77740000
    75  H          0.18130000       0.06880000       0.22260000
    76  H          0.31870000       0.93120000       0.72260000
    77  H          0.93740000       0.63540000       0.23780000
    78  H          0.56260000       0.36460000       0.73780000
    79  H          0.06260000       0.13540000       0.26220000
    80  H          0.43740000       0.86460000       0.76220000
    81  C          0.84811300       0.73041100       0.30234000
    82  C          0.65188700       0.26958900       0.80234000
    83  C          0.15188700       0.23041100       0.19766000
    84  C          0.34811300       0.76958900       0.69766000
    85  H          0.75020000       0.73040000       0.32530000
    86  H          0.74980000       0.26960000       0.82530000
    87  H          0.24980000       0.23040000       0.17470000
    88  H          0.25020000       0.76960000       0.67470000
    89  H          0.94130000       0.71650000       0.32650000
    90  H          0.55870000       0.28350000       0.82650000
    91  H          0.05870000       0.21650000       0.17350000
    92  H          0.44130000       0.78350000       0.67350000
    93  C          0.86721100       0.84151000       0.27463000
    94  C          0.63278900       0.15849000       0.77463000
    95  C          0.13278900       0.34151000       0.22537000
    96  C          0.36721100       0.65849000       0.72537000
    97  H          0.97060000       0.84340000       0.25470000
    98  H          0.52940000       0.15660000       0.75470000
    99  H          0.02940000       0.34340000       0.24530000
   100  H          0.47060000       0.65660000       0.74530000
   101  H          0.87030000       0.89860000       0.30330000
   102  H          0.62970000       0.10140000       0.80330000
   103  H          0.12970000       0.39860000       0.19670000
   104  H          0.37030000       0.60140000       0.69670000
   105  C          0.72921000       0.86737000       0.23373000
   106  C          0.77079000       0.13263000       0.73373000
   107  C          0.27079000       0.36737000       0.26627000
   108  C          0.22921000       0.63263000       0.76627000
   109  H          0.62750000       0.87030000       0.25550000
   110  H          0.87250000       0.12970000       0.75550000
   111  H          0.37250000       0.37030000       0.24450000
   112  H          0.12750000       0.62970000       0.74450000
   113  C          0.83741000       0.77497000       0.14623000
   114  C          0.66259000       0.22503000       0.64623000
   115  C          0.16259000       0.27497000       0.35377000
   116  C          0.33741000       0.72503000       0.85377000
   117  H          0.81230000       0.71730000       0.11910000
   118  H          0.68770000       0.28270000       0.61910000
   119  H          0.18770000       0.21730000       0.38090000
   120  H          0.31230000       0.78270000       0.88090000
   121  H          0.94340000       0.75820000       0.16250000
   122  H          0.55660000       0.24180000       0.66250000
   123  H          0.05660000       0.25820000       0.33750000
   124  H          0.44340000       0.74180000       0.83750000
   125  C          0.84601000       0.88536000       0.11653000
   126  C          0.65399000       0.11464000       0.61653000
   127  C          0.15399000       0.38536000       0.38347000
   128  C          0.34601000       0.61464000       0.88347000
   129  H          0.93640000       0.88230000       0.08960000
   130  H          0.56360000       0.11770000       0.58960000
   131  H          0.06360000       0.38230000       0.41040000
   132  H          0.43640000       0.61770000       0.91040000
   133  C          0.88581100       0.97617000       0.16024000
   134  C          0.61418900       0.02383000       0.66024000
   135  C          0.11418900       0.47617000       0.33976000
   136  C          0.38581100       0.52383000       0.83976000
   137  H         -0.01230000       0.95940000       0.17930000
   138  H          0.51230000       0.04060000       0.67930000
   139  H          0.01230000       0.45940000       0.32070000
   140  H          0.48770000       0.54060000       0.82070000
   141  H          0.89590000       0.04790000       0.14210000
   142  H          0.60410000       0.95210000       0.64210000
   143  H          0.10410000       0.54790000       0.35790000
   144  H          0.39590000       0.45210000       0.85790000
   145  C          0.74351100       0.97677000       0.20183000
   146  C          0.75648900       0.02323000       0.70183000
   147  C          0.25648900       0.47677000       0.29817000
   148  C          0.24351100       0.52323000       0.79817000
   149  H          0.76340000       0.03590000       0.22920000
   150  H          0.73660000       0.96410000       0.72920000
   151  H          0.23660000       0.53590000       0.27080000
   152  H          0.26340000       0.46410000       0.77080000
   153  C          0.58591100       0.00427000       0.17043000
   154  C          0.91408900      -0.00427000       0.67043000
   155  C          0.41408900       0.50427000       0.32957000
   156  C          0.08591100       0.49573000       0.82957000
   157  H          0.49500000       0.00320000       0.19660000
   158  H          0.00500000      -0.00320000       0.69660000
   159  H          0.50500000       0.50320000       0.30340000
   160  H         -0.00500000       0.49680000       0.80340000
   161  H          0.59400000       0.07850000       0.15500000
   162  H          0.90600000       0.92150000       0.65500000
   163  H          0.40600000       0.57850000       0.34500000
   164  H          0.09400000       0.42150000       0.84500000
   165  N          0.55258000       0.92535000       0.12462000
   166  N          0.94742000       0.07465000       0.62462000
   167  N          0.44742000       0.42535000       0.37538000
   168  N          0.05258000       0.57465000       0.87538000
   169  C          0.68939000       0.91827000       0.08433000
   170  C          0.81061000       0.08173000       0.58433000
   171  C          0.31061000       0.41827000       0.41567000
   172  C          0.18939000       0.58173000       0.91567000
   173  H          0.70650000      -0.00770000       0.06840000
   174  H          0.79350000       0.00770000       0.56840000
   175  H          0.29350000       0.49230000       0.43160000
   176  H          0.20650000       0.50770000       0.93160000
   177  C          0.64851200       0.84137000       0.03733000
   178  C          0.85148800       0.15863000       0.53733000
   179  C          0.35148800       0.34137000       0.46267000
   180  C          0.14851200       0.65863000       0.96267000
   181  H          0.63890000       0.76650000       0.05200000
   182  H          0.86110000       0.23350000       0.55200000
   183  H          0.36110000       0.26650000       0.44800000
   184  H          0.13890000       0.73350000       0.94800000
   185  H          0.73750000       0.84190000       0.01040000
   186  H          0.76250000       0.15810000       0.51040000
   187  H          0.26250000       0.34190000       0.48960000
   188  H          0.23750000       0.65810000       0.98960000
   189  C          0.48921300       0.87199000       0.00713000
   190  C          0.01078700       0.12801000       0.50713000
   191  C          0.51078700       0.37199000       0.49287000
   192  C         -0.01078700       0.62801000       0.99287000
   193  H          0.50130000       0.94300000       0.98830000
   194  H         -0.00130000       0.05700000       0.48830000
   195  H          0.49870000       0.44300000       0.51170000
   196  H          0.00130000       0.55700000       0.01170000
   197  H          0.46340000       0.81620000       0.97900000
   198  H          0.03660000       0.18380000       0.47900000
   199  H          0.53660000       0.31620000       0.52100000
   200  H          0.96340000       0.68380000       0.02100000
   201  C          0.35401200       0.87839000       0.04984000
   202  C          0.14598800       0.12161000       0.54984000
   203  C          0.64598800       0.37839000       0.45016000
   204  C          0.85401200       0.62161000       0.95016000
   205  H          0.25460000       0.90430000       0.03180000
   206  H          0.24540000       0.09570000       0.53180000
   207  H          0.74540000       0.40430000       0.46820000
   208  H          0.75460000       0.59570000       0.96820000
   209  H          0.33300000       0.80480000       0.06470000
   210  H          0.16700000       0.19520000       0.56470000
   211  H          0.66700000       0.30480000       0.43530000
   212  H          0.83300000       0.69520000       0.93530000
   213  C          0.39801100       0.95537000       0.09693000
   214  C          0.10198900       0.04463000       0.59693000
   215  C          0.60198900       0.45537000       0.40307000
   216  C          0.89801100       0.54463000       0.90307000
   217  H          0.40690000       0.03020000       0.08230000
   218  H          0.09310000       0.96980000       0.58230000
   219  H          0.59310000       0.53020000       0.41770000
   220  H          0.90690000       0.46980000       0.91770000
   221  H          0.31070000       0.95460000       0.12450000
   222  H          0.18930000       0.04540000       0.62450000
   223  H          0.68930000       0.45460000       0.37550000
   224  H          0.81070000       0.54540000       0.87550000
