data_BOFKOX
_symmetry_space_group_name_H-M    'P1'
_symmetry_Int_Tables_number       1
loop_
_symmetry_equiv_pos_site_id
_symmetry_equiv_pos_as_xyz
1 x,y,z
_cell_length_a                   15.26117
_cell_length_b                   10.99412
_cell_length_c                   15.90117
_cell_angle_alpha                90.0
_cell_angle_beta                 95.812
_cell_angle_gamma                90.0
loop_
_atom_site_label
_atom_site_type_symbol
_atom_site_fract_x
_atom_site_fract_y
_atom_site_fract_z
     1  Br         0.38675800       0.03412800       0.15303600
     2  Br         0.11324200       0.53412800       0.34696400
     3  Br         0.61324200       0.96587200       0.84696400
     4  Br         0.88675800       0.46587200       0.65303600
     5  S          0.49482150       0.16840160       0.92445880
     6  S          0.00517850       0.66840160       0.57554120
     7  S          0.50517850       0.83159840       0.07554120
     8  S         -0.00517850       0.33159840       0.42445880
     9  C          0.48125000       0.06086000       0.00284000
    10  C          0.01875000       0.56086000       0.49716000
    11  C          0.51875000       0.93914000      -0.00284000
    12  C          0.98125000       0.43914000       0.50284000
    13  C          0.42936000       0.11137000       0.05845000
    14  C          0.07064000       0.61137000       0.44155000
    15  C          0.57064000       0.88863000       0.94155000
    16  C          0.92936000       0.38863000       0.55845000
    17  C          0.40235000       0.23226000       0.04145000
    18  C          0.09765000       0.73226000       0.45855000
    19  C          0.59765000       0.76774000       0.95855000
    20  C          0.90235000       0.26774000       0.54145000
    21  H          0.36860000       0.27710000       0.07580000
    22  H          0.13140000       0.77710000       0.42420000
    23  H          0.63140000       0.72290000       0.92420000
    24  H          0.86860000       0.22290000       0.57580000
    25  C          0.43115000       0.27556000       0.96935000
    26  C          0.06885000       0.77556000       0.53065000
    27  C          0.56885000       0.72444000       0.03065000
    28  C          0.93115000       0.22444000       0.46935000
    29  C          0.41335000       0.39376000       0.92765000
    30  C          0.08665000       0.89376000       0.57235000
    31  C          0.58665000       0.60624000       0.07235000
    32  C          0.91335000       0.10624000       0.42765000
    33  C          0.38656000       0.49266000       0.97335000
    34  C          0.11344000      -0.00734000       0.52665000
    35  C          0.61344000       0.50734000       0.02665000
    36  C          0.88656000       0.00734000       0.47335000
    37  H          0.38190000       0.48480000       0.03100000
    38  H          0.11810000       0.98480000       0.46900000
    39  H          0.61810000       0.51520000       0.96900000
    40  H          0.88190000       0.01520000       0.53100000
    41  C          0.36655000       0.60446000       0.93285000
    42  C          0.13345000       0.10446000       0.56715000
    43  C          0.63345000       0.39554000       0.06715000
    44  C          0.86655000       0.89554000       0.43285000
    45  H          0.35100000       0.67080000       0.96450000
    46  H          0.14900000       0.17080000       0.53550000
    47  H          0.64900000       0.32920000       0.03550000
    48  H          0.85100000       0.82920000       0.46450000
    49  C          0.36955000       0.61676000       0.84655000
    50  C          0.13045000       0.11676000       0.65345000
    51  C          0.63045000       0.38324000       0.15345000
    52  C          0.86955000       0.88324000       0.34655000
    53  C          0.39816000       0.51726000       0.80045000
    54  C          0.10184000       0.01726000       0.69955000
    55  C          0.60184000       0.48274000       0.19955000
    56  C          0.89816000       0.98274000       0.30045000
    57  H          0.40270000       0.52460000       0.74280000
    58  H          0.09730000       0.02460000       0.75720000
    59  H          0.59730000       0.47540000       0.25720000
    60  H          0.90270000       0.97540000       0.24280000
    61  C          0.41935000       0.40856000       0.84145000
    62  C          0.08065000       0.90856000       0.65855000
    63  C          0.58065000       0.59144000       0.15855000
    64  C          0.91935000       0.09144000       0.34145000
    65  H          0.43810000       0.34340000       0.81050000
    66  H          0.06190000       0.84340000       0.68950000
    67  H          0.56190000       0.65660000       0.18950000
    68  H          0.93810000       0.15660000       0.31050000
    69  N          0.34335000       0.72535000       0.80536000
    70  N          0.15665000       0.22535000       0.69464000
    71  N          0.65665000       0.27465000       0.19464000
    72  N          0.84335000       0.77465000       0.30536000
    73  C          0.37316000       0.76057000       0.72785000
    74  C          0.12684000       0.26057000       0.77215000
    75  C          0.62684000       0.23943000       0.27215000
    76  C          0.87316000       0.73943000       0.22785000
    77  C          0.46057000       0.74678000       0.71353000
    78  C          0.03943000       0.24678000       0.78647000
    79  C          0.53943000       0.25322000       0.28647000
    80  C          0.96057000       0.75322000       0.21353000
    81  H          0.50050000       0.71500000       0.75590000
    82  H         -0.00050000       0.21500000       0.74410000
    83  H          0.49950000       0.28500000       0.24410000
    84  H          0.00050000       0.78500000       0.25590000
    85  C          0.48878000       0.77971000       0.63711000
    86  C          0.01122000       0.27971000       0.86289000
    87  C          0.51122000       0.22029000       0.36289000
    88  C          0.98878000       0.72029000       0.13711000
    89  H          0.54720000       0.76800000       0.62770000
    90  H          0.95280000       0.26800000       0.87230000
    91  H          0.45280000       0.23200000       0.37230000
    92  H          0.04720000       0.73200000       0.12770000
    93  C          0.43101100       0.82961000       0.57482000
    94  C          0.06898900       0.32961000       0.92518000
    95  C          0.56898900       0.17039000       0.42518000
    96  C          0.93101100       0.67039000       0.07482000
    97  H          0.45030000       0.85220000       0.52350000
    98  H          0.04970000       0.35220000       0.97650000
    99  H          0.54970000       0.14780000       0.47650000
   100  H          0.95030000       0.64780000       0.02350000
   101  C          0.34369000       0.84649000       0.58894000
   102  C          0.15631000       0.34649000       0.91106000
   103  C          0.65631000       0.15351000       0.41106000
   104  C          0.84369000       0.65351000       0.08894000
   105  H          0.30460000       0.88180000       0.54730000
   106  H          0.19540000       0.38180000       0.95270000
   107  H          0.69540000       0.11820000       0.45270000
   108  H          0.80460000       0.61820000       0.04730000
   109  C          0.31407000       0.81087000       0.66424000
   110  C          0.18593000       0.31087000       0.83576000
   111  C          0.68593000       0.18913000       0.33576000
   112  C          0.81407000       0.68913000       0.16424000
   113  H          0.25500000       0.82030000       0.67280000
   114  H          0.24500000       0.32030000       0.82720000
   115  H          0.74500000       0.17970000       0.32720000
   116  H          0.75500000       0.67970000       0.17280000
   117  C          0.28566000       0.80597000       0.84285000
   118  C          0.21434000       0.30597000       0.65715000
   119  C          0.71434000       0.19403000       0.15715000
   120  C          0.78566000       0.69403000       0.34285000
   121  C          0.31217000       0.91927000       0.87015000
   122  C          0.18783000       0.41927000       0.62985000
   123  C          0.68783000       0.08073000       0.12985000
   124  C          0.81217000       0.58073000       0.37015000
   125  H          0.36900000       0.94380000       0.86260000
   126  H          0.13100000       0.44380000       0.63740000
   127  H          0.63100000       0.05620000       0.13740000
   128  H          0.86900000       0.55620000       0.36260000
   129  C          0.25789000      -0.00019000       0.90873000
   130  C          0.24211000       0.49981000       0.59127000
   131  C          0.74211000       0.00019000       0.09127000
   132  C          0.75789000       0.50019000       0.40873000
   133  H          0.27820000       0.07630000       0.92660000
   134  H          0.22180000       0.57630000       0.57340000
   135  H          0.72180000       0.92370000       0.07340000
   136  H          0.77820000       0.42370000       0.42660000
   137  C          0.17451100       0.96411200       0.91984000
   138  C          0.32548900       0.46411200       0.58016000
   139  C          0.82548900       0.03588800       0.08016000
   140  C          0.67451100       0.53588800       0.41984000
   141  H          0.13860000       0.01600000       0.94730000
   142  H          0.36140000       0.51600000       0.55270000
   143  H          0.86140000       0.98400000       0.05270000
   144  H          0.63860000       0.48400000       0.44730000
   145  C          0.14047000       0.84859000       0.89034000
   146  C          0.35953000       0.34859000       0.60966000
   147  C          0.85953000       0.15141000       0.10966000
   148  C          0.64047000       0.65141000       0.39034000
   149  C          0.19716000       0.76928000       0.85105000
   150  C          0.30284000       0.26928000       0.64895000
   151  C          0.80284000       0.23072000       0.14895000
   152  C          0.69716000       0.73072000       0.35105000
   153  C          0.16327000       0.65638000       0.81604000
   154  C          0.33673000       0.15638000       0.68396000
   155  C          0.83673000       0.34362000       0.18396000
   156  C          0.66327000       0.84362000       0.31604000
   157  H          0.19920000       0.60270000       0.79020000
   158  H          0.30080000       0.10270000       0.70980000
   159  H          0.80080000       0.39730000       0.20980000
   160  H          0.69920000       0.89730000       0.29020000
   161  C          0.07659000       0.62961100       0.82173000
   162  C          0.42341000       0.12961100       0.67827000
   163  C          0.92341000       0.37038900       0.17827000
   164  C          0.57659000       0.87038900       0.32173000
   165  H          0.05310000       0.55850000       0.79710000
   166  H          0.44690000       0.05850000       0.70290000
   167  H          0.94690000       0.44150000       0.20290000
   168  H          0.55310000       0.94150000       0.29710000
   169  C          0.02321100       0.70451800       0.86289000
   170  C          0.47678900       0.20451800       0.63711000
   171  C          0.97678900       0.29548200       0.13711000
   172  C          0.52321100       0.79548200       0.36289000
   173  H          0.96550000       0.68070000       0.86850000
   174  H          0.53450000       0.18070000       0.63150000
   175  H          0.03450000       0.31930000       0.13150000
   176  H          0.46550000       0.81930000       0.36850000
   177  C          0.05289000       0.81301700       0.89571000
   178  C          0.44711000       0.31301700       0.60429000
   179  C          0.94711000       0.18698300       0.10429000
   180  C          0.55289000       0.68698300       0.39571000
   181  H          0.01500000       0.86370000       0.92190000
   182  H          0.48500000       0.36370000       0.57810000
   183  H          0.98500000       0.13630000       0.07810000
   184  H          0.51500000       0.63630000       0.42190000
   185  O          0.25081900       0.65020000       0.12491300
   186  O          0.24918100       0.15020000       0.37508700
   187  O          0.74918100       0.34980000       0.87508700
   188  O          0.75081900       0.84980000       0.62491300
   189  C          0.33101200       0.63420000       0.19301500
   190  C          0.16898800       0.13420000       0.30698500
   191  C          0.66898800       0.36580000       0.80698500
   192  C          0.83101200       0.86580000       0.69301500
   193  H          0.38510000       0.64950000       0.16760000
   194  H          0.11490000       0.14950000       0.33240000
   195  H          0.61490000       0.35050000       0.83240000
   196  H          0.88510000       0.85050000       0.66760000
   197  H          0.32700000       0.69270000       0.23800000
   198  H          0.17300000       0.19270000       0.26200000
   199  H          0.67300000       0.30730000       0.76200000
   200  H          0.82700000       0.80730000       0.73800000
   201  C          0.25530000       0.43721800       0.18430000
   202  C          0.24470000       0.93721800       0.31570000
   203  C          0.74470000       0.56278200       0.81570000
   204  C          0.75530000       0.06278200       0.68430000
   205  H          0.27620000       0.36640000       0.15600000
   206  H          0.22380000       0.86640000       0.34400000
   207  H          0.72380000       0.63360000       0.84400000
   208  H          0.77620000       0.13360000       0.65600000
   209  H          0.21630000       0.41040000       0.22530000
   210  H          0.28370000       0.91040000       0.27470000
   211  H          0.78370000       0.58960000       0.77470000
   212  H          0.71630000       0.08960000       0.72530000
   213  C          0.21021200       0.52030000       0.12411500
   214  C          0.28978800       0.02030000       0.37588500
   215  C          0.78978800       0.47970000       0.87588500
   216  C          0.71021200       0.97970000       0.62411500
   217  H          0.14920000       0.52620000       0.13570000
   218  H          0.35080000       0.02620000       0.36430000
   219  H          0.85080000       0.47380000       0.86430000
   220  H          0.64920000       0.97380000       0.63570000
   221  H          0.21090000       0.48580000       0.06790000
   222  H          0.28910000       0.98580000       0.43210000
   223  H          0.78910000       0.51420000       0.93210000
   224  H          0.71090000       0.01420000       0.56790000
   225  C          0.33331900       0.50940000       0.22861100
   226  C          0.16668100       0.00940000       0.27138900
   227  C          0.66668100       0.49060000       0.77138900
   228  C          0.83331900      -0.00940000       0.72861100
   229  H          0.32890000       0.51270000       0.28900000
   230  H          0.17110000       0.01270000       0.21100000
   231  H          0.67110000       0.48730000       0.71100000
   232  H          0.82890000       0.98730000       0.78900000
   233  H          0.38840000       0.47000000       0.21930000
   234  H          0.11160000       0.97000000       0.28070000
   235  H          0.61160000       0.53000000       0.78070000
   236  H          0.88840000       0.03000000       0.71930000
