data_BOFNIX
_symmetry_space_group_name_H-M    'P1'
_symmetry_Int_Tables_number       1
loop_
_symmetry_equiv_pos_site_id
_symmetry_equiv_pos_as_xyz
1 x,y,z
_cell_length_a                   12.74521
_cell_length_b                   7.47716
_cell_length_c                   13.83631
_cell_angle_alpha                90.0
_cell_angle_beta                 102.5992
_cell_angle_gamma                90.0
loop_
_atom_site_label
_atom_site_type_symbol
_atom_site_fract_x
_atom_site_fract_y
_atom_site_fract_z
     1  I          0.37676300       0.00000000       0.14903300
     2  I          0.62323700       0.00000000       0.85096700
     3  I          0.87676300       0.50000000       0.14903300
     4  I          0.12323700       0.50000000       0.85096700
     5  I          0.10774400       0.00000000       0.04608300
     6  I          0.89225600       0.00000000       0.95391700
     7  I          0.60774400       0.50000000       0.04608300
     8  I          0.39225600       0.50000000       0.95391700
     9  I          0.45620400       0.00000000       0.39734500
    10  I          0.54379600       0.00000000       0.60265500
    11  I          0.95620400       0.50000000       0.39734500
    12  I          0.04379600       0.50000000       0.60265500
    13  O          0.52193000       0.50000000       0.37274000
    14  O          0.47807000       0.50000000       0.62726000
    15  O          0.02193000      -0.00000000       0.37274000
    16  O          0.97807000      -0.00000000       0.62726000
    17  H          0.54880000       0.50000000       0.42980000
    18  H          0.45120000       0.50000000       0.57020000
    19  H          0.04880000      -0.00000000       0.42980000
    20  H          0.95120000      -0.00000000       0.57020000
    21  O          0.37543000       0.50000000       0.43783000
    22  O          0.62457000       0.50000000       0.56217000
    23  O          0.87543000       0.00000000       0.43783000
    24  O          0.12457000      -0.00000000       0.56217000
    25  N          0.23804000       0.50000000       0.24214000
    26  N          0.76196000       0.50000000       0.75786000
    27  N          0.73804000      -0.00000000       0.24214000
    28  N          0.26196000      -0.00000000       0.75786000
    29  C          0.41754000       0.50000000       0.36784000
    30  C          0.58246000       0.50000000       0.63216000
    31  C          0.91754000      -0.00000000       0.36784000
    32  C          0.08246000      -0.00000000       0.63216000
    33  C          0.35884000       0.50000000       0.26024000
    34  C          0.64116000       0.50000000       0.73976000
    35  C          0.85884000      -0.00000000       0.26024000
    36  C          0.14116000      -0.00000000       0.73976000
    37  H          0.37940000       0.39240000       0.22940000
    38  H          0.62060000       0.39240000       0.77060000
    39  H          0.87940000       0.89240000       0.22940000
    40  H          0.12060000       0.89240000       0.77060000
    41  H          0.62060000       0.60760000       0.77060000
    42  H          0.37940000       0.60760000       0.22940000
    43  H          0.12060000       0.10760000       0.77060000
    44  H          0.87940000       0.10760000       0.22940000
    45  C          0.19653000       0.33536000       0.28303000
    46  C          0.80347000       0.33536000       0.71697000
    47  C          0.69653000       0.83536000       0.28303000
    48  C          0.30347000       0.83536000       0.71697000
    49  C          0.80347000       0.66464000       0.71697000
    50  C          0.19653000       0.66464000       0.28303000
    51  C          0.30347000       0.16464000       0.71697000
    52  C          0.69653000       0.16464000       0.28303000
    53  H          0.11786800       0.33224600       0.26260000
    54  H          0.88213200       0.33224600       0.73740000
    55  H          0.61786800       0.83224600       0.26260000
    56  H          0.38213200       0.83224600       0.73740000
    57  H          0.88213200       0.66775400       0.73740000
    58  H          0.11786800       0.66775400       0.26260000
    59  H          0.38213200       0.16775400       0.73740000
    60  H          0.61786800       0.16775400       0.26260000
    61  H          0.21785900       0.33688600       0.35543400
    62  H          0.78214100       0.33688600       0.64456600
    63  H          0.71785900       0.83688600       0.35543400
    64  H          0.28214100       0.83688600       0.64456600
    65  H          0.78214100       0.66311400       0.64456600
    66  H          0.21785900       0.66311400       0.35543400
    67  H          0.28214100       0.16311400       0.64456600
    68  H          0.71785900       0.16311400       0.35543400
    69  H          0.22654100       0.22899700       0.25759200
    70  H          0.77345900       0.22899700       0.74240800
    71  H          0.72654100       0.72899700       0.25759200
    72  H          0.27345900       0.72899700       0.74240800
    73  H          0.77345900       0.77100300       0.74240800
    74  H          0.22654100       0.77100300       0.25759200
    75  H          0.27345900       0.27100300       0.74240800
    76  H          0.72654100       0.27100300       0.25759200
    77  C          0.19745000       0.50000000       0.13155000
    78  C          0.80255000       0.50000000       0.86845000
    79  C          0.69745000      -0.00000000       0.13155000
    80  C          0.30255000      -0.00000000       0.86845000
    81  H          0.22750000       0.39150000       0.10840000
    82  H          0.77250000       0.39150000       0.89160000
    83  H          0.72750000       0.89150000       0.10840000
    84  H          0.27250000       0.89150000       0.89160000
    85  H          0.77250000       0.60850000       0.89160000
    86  H          0.22750000       0.60850000       0.10840000
    87  H          0.27250000       0.10850000       0.89160000
    88  H          0.72750000       0.10850000       0.10840000
    89  H          0.11851000       0.50000000       0.11570000
    90  H          0.88149000       0.50000000       0.88430000
    91  H          0.61851000      -0.00000000       0.11570000
    92  H          0.38149000      -0.00000000       0.88430000
