data_BOKHUG
_symmetry_space_group_name_H-M    'P1'
_symmetry_Int_Tables_number       1
loop_
_symmetry_equiv_pos_site_id
_symmetry_equiv_pos_as_xyz
1 x,y,z
_cell_length_a                   6.93024
_cell_length_b                   9.93566
_cell_length_c                   18.629811
_cell_angle_alpha                83.6333
_cell_angle_beta                 89.6243
_cell_angle_gamma                72.7943
loop_
_atom_site_label
_atom_site_type_symbol
_atom_site_fract_x
_atom_site_fract_y
_atom_site_fract_z
     1  H          0.83850000       0.35650000      -0.00040000
     2  H          0.16150000       0.64350000       0.00040000
     3  H          0.62690000       0.75100000       0.88570000
     4  H          0.37310000       0.24900000       0.11430000
     5  H          0.85970000       0.29660000       0.83730000
     6  H          0.14030000       0.70340000       0.16270000
     7  H          0.65170000       0.74780000       0.70620000
     8  H          0.34830000       0.25220000       0.29380000
     9  H          0.74960000       0.28370000       0.59270000
    10  H          0.25040000       0.71630000       0.40730000
    11  H          0.66110000       0.19870000       0.64620000
    12  H          0.33890000       0.80130000       0.35380000
    13  H          0.66040000       0.92600000       0.77880000
    14  H          0.33960000       0.07400000       0.22120000
    15  H          0.44380000       0.91190000       0.77450000
    16  H          0.55620000       0.08810000       0.22550000
    17  H          0.17500000       0.08440000       0.85980000
    18  H          0.82500000       0.91560000       0.14020000
    19  H          0.23230000       0.23430000       0.95670000
    20  H          0.76770000       0.76570000       0.04330000
    21  H          0.59810000       0.18110000       0.97380000
    22  H          0.40190000       0.81890000       0.02620000
    23  S          0.90945600       0.24503400       0.69277219
    24  S          0.09054400       0.75496600       0.30722781
    25  N          0.75222000       0.23840150       0.63265700
    26  N          0.24778000       0.76159850       0.36734300
    27  N          0.62572000       0.76286130       0.84367600
    28  N          0.37428000       0.23713870       0.15632400
    29  O          0.83874170       0.35492110       0.95768500
    30  O          0.16125830       0.64507890       0.04231500
    31  O          0.69902000       0.58677120       0.96471600
    32  O          0.30098000       0.41322880       0.03528400
    33  O          0.08839170       0.25795120       0.65571600
    34  O          0.91160830       0.74204880       0.34428400
    35  O          0.92922190       0.12743110       0.74723600
    36  O          0.07077810       0.87256890       0.25276400
    37  O          0.63298180       0.04283120       0.89635600
    38  O          0.36701820       0.95716880       0.10364400
    39  C          0.81682000       0.40060150       0.73545800
    40  C          0.18318000       0.59939850       0.26454200
    41  C          0.75582000       0.53718150       0.69798700
    42  C          0.24418000       0.46281850       0.30201300
    43  C          0.81742000       0.38834150       0.81097700
    44  C          0.18258000       0.61165850       0.18902300
    45  C          0.75782000       0.50681150       0.84860700
    46  C          0.24218000       0.49318850       0.15139300
    47  C          0.69352000       0.65677150       0.73328700
    48  C          0.30648000       0.34322850       0.26671300
    49  C          0.69122000       0.64507150       0.80977700
    50  C          0.30878000       0.35492850       0.19022300
    51  C          0.76172000       0.48720150       0.92875800
    52  C          0.23828000       0.51279850       0.07124200
    53  C          0.55382000       0.90601150       0.80606800
    54  C          0.44618000       0.09398850       0.19393200
    55  C          0.48612000       0.01176160       0.85817800
    56  C          0.51388000      -0.01176160       0.14182200
    57  C          0.30153000       0.08669170       0.87805900
    58  C          0.69847000       0.91330830       0.12194100
    59  C          0.33333000       0.17030170       0.93209900
    60  C          0.66667000       0.82969830       0.06790100
    61  C          0.53363000       0.14034170       0.94097900
    62  C          0.46637000       0.85965830       0.05902100
    63  Cl         0.75328600       0.56237400       0.60448318
    64  Cl         0.24671400       0.43762600       0.39551682
    65  H          0.28980000       0.45540000       0.54390000
    66  H          0.71020000       0.54460000       0.45610000
    67  H          0.20580000       0.86600000       0.52250000
    68  H          0.79420000       0.13400000       0.47750000
    69  H          0.17930000       0.87300000       0.64610000
    70  H          0.82070000       0.12700000       0.35390000
    71  H          0.26100000       0.44890000       0.66790000
    72  H          0.73900000       0.55110000       0.33210000
    73  H          0.33630000       0.44880000       0.77950000
    74  H          0.66370000       0.55120000       0.22050000
    75  H          0.04780000       0.87160000       0.75260000
    76  H          0.95220000       0.12840000       0.24740000
    77  H          0.02250000       0.86410000       0.87690000
    78  H          0.97750000       0.13590000       0.12310000
    79  H          0.30790000       0.45550000       0.90340000
    80  H          0.69210000       0.54450000       0.09660000
    81  N          0.24862000       0.66113150       0.52080700
    82  N          0.75138000       0.33886850       0.47919300
    83  N          0.16472000       0.65979140       0.90145700
    84  N          0.83528000       0.34020860       0.09854300
    85  C          0.26543000       0.54160180       0.56489800
    86  C          0.73457000       0.45839820       0.43510200
    87  C          0.21733000       0.78001170       0.55252800
    88  C          0.78267000       0.21998830       0.44747200
    89  C          0.20062000       0.78553160       0.62656800
    90  C          0.79938000       0.21446840       0.37343200
    91  C          0.24922000       0.53649160       0.63931800
    92  C          0.75078000       0.46350840       0.36068200
    93  C          0.21542000       0.66092150       0.67200700
    94  C          0.78458000       0.33907850       0.32799300
    95  C          0.19602000       0.66031150       0.75143700
    96  C          0.80398000       0.33968850       0.24856300
    97  C          0.27252000       0.53584160       0.79811800
    98  C          0.72748000       0.46415840       0.20188200
    99  C          0.10202000       0.78444160       0.78234800
   100  C          0.89798000       0.21555840       0.21765200
   101  C          0.08862000       0.77923160       0.85666800
   102  C          0.91138000       0.22076840       0.14333200
   103  C          0.25422000       0.54078160       0.87214800
   104  C          0.74578000       0.45921840       0.12785200
   105  H          0.25710000       0.11330000       0.40900000
   106  H          0.74290000       0.88670000       0.59100000
   107  H          0.21440000       0.18210000       0.52560000
   108  H          0.78560000       0.81790000       0.47440000
   109  H          0.34020000       0.12680000       0.64350000
   110  H          0.65980000       0.87320000       0.35650000
   111  O          0.45802170       0.07522120       0.63932600
   112  O          0.54197830       0.92477880       0.36067400
   113  C          0.35602000       0.06733160       0.44598800
   114  C          0.64398000       0.93266840       0.55401200
   115  C          0.33022000       0.10809160       0.51525800
   116  C          0.66978000       0.89190840       0.48474200
   117  C          0.47482000       0.03990150       0.56946800
   118  C          0.52518000       0.96009850       0.43053200
