data_BOKHOA
_symmetry_space_group_name_H-M    'P1'
_symmetry_Int_Tables_number       1
loop_
_symmetry_equiv_pos_site_id
_symmetry_equiv_pos_as_xyz
1 x,y,z
_cell_length_a                   6.75105
_cell_length_b                   9.57196
_cell_length_c                   18.617813
_cell_angle_alpha                84.9774
_cell_angle_beta                 89.7834
_cell_angle_gamma                73.4884
loop_
_atom_site_label
_atom_site_type_symbol
_atom_site_fract_x
_atom_site_fract_y
_atom_site_fract_z
     1  H          0.24430000       0.13070000       0.05350000
     2  H          0.75570000       0.86930000       0.94650000
     3  H          0.38960000       0.71900000       0.16770000
     4  H          0.61040000       0.28100000       0.83230000
     5  H          0.20400000       0.18260000       0.22480000
     6  H          0.79600000       0.81740000       0.77520000
     7  H          0.40690000       0.71690000       0.35000000
     8  H          0.59310000       0.28310000       0.65000000
     9  H          0.10860000       0.19620000       0.47640000
    10  H          0.89140000       0.80380000       0.52360000
    11  H          0.94010000       0.31430000       0.42140000
    12  H          0.05990000       0.68570000       0.57860000
    13  H          0.57590000       0.54160000       0.27700000
    14  H          0.42410000       0.45840000       0.72300000
    15  H          0.35630000       0.52600000       0.26490000
    16  H          0.64370000       0.47400000       0.73510000
    17  H          0.86280000       0.36230000       0.19150000
    18  H          0.13720000       0.63770000       0.80850000
    19  H          0.81740000       0.26370000       0.07010000
    20  H          0.18260000       0.73630000       0.92990000
    21  H          0.44940000       0.35300000       0.03770000
    22  H          0.55060000       0.64700000       0.96230000
    23  S          0.22402800       0.23870500       0.36690300
    24  S          0.77597200       0.76129500       0.63309700
    25  N          0.05613000       0.24682000       0.42747100
    26  N          0.94387000       0.75318000       0.57252900
    27  N          0.39953000       0.70341190       0.21075900
    28  N          0.60047000       0.29658810       0.78924100
    29  O          0.20943000       0.12730170       0.10528800
    30  O          0.79057000       0.87269830       0.89471200
    31  O          0.29683000       0.88698180       0.09195800
    32  O          0.70317000       0.11301820       0.90804200
    33  O          0.41933000       0.23023170       0.40144900
    34  O          0.58067000       0.76976830       0.59855100
    35  O          0.14113000       0.35579170       0.31165800
    36  O          0.85887000       0.64420830       0.68834200
    37  O          0.40373000       0.45472000       0.13201100
    38  O          0.59627000       0.54528000       0.86798900
    39  C          0.26163000       0.07612000       0.32469100
    40  C          0.73837000       0.92388000       0.67530900
    41  C          0.32353000       0.93452000       0.36068100
    42  C          0.67647000       0.06548000       0.63931900
    43  C          0.24463000       0.08792000       0.25005100
    44  C          0.75537000       0.91208000       0.74994900
    45  C          0.28513000       0.96602000       0.21070100
    46  C          0.71487000       0.03398000       0.78929900
    47  C          0.36643000       0.81092000       0.32404100
    48  C          0.63357000       0.18908000       0.67595900
    49  C          0.35063000       0.82322000       0.24767100
    50  C          0.64937000       0.17678000       0.75232900
    51  C          0.26413000      -0.01138000       0.13086100
    52  C          0.73587000       0.01138000       0.86913900
    53  C          0.46863000       0.55232000       0.24233110
    54  C          0.53137000       0.44768000       0.75766890
    55  C          0.54673000       0.45702000       0.18360120
    56  C          0.45327000       0.54298000       0.81639880
    57  C          0.73734000       0.37823000       0.16503150
    58  C          0.26266000       0.62177000       0.83496850
    59  C          0.71214000       0.32313000       0.09726150
    60  C          0.28786000       0.67687000       0.90273850
    61  C          0.51055000       0.37243000       0.08019140
    62  C          0.48945000       0.62757000       0.91980860
    63  Cl         0.35121800       0.91036500       0.45382200
    64  Cl         0.64878200       0.08963500       0.54617800
    65  H          0.80330000       0.02950000       0.39970000
    66  H          0.19670000       0.97050000       0.60030000
    67  H          0.95070000       0.60120000       0.41040000
    68  H          0.04930000       0.39880000       0.58960000
    69  H          0.93060000       0.60430000       0.28620000
    70  H          0.06940000       0.39570000       0.71380000
    71  H          0.78120000       0.04710000       0.27490000
    72  H          0.21880000       0.95290000       0.72510000
    73  H          0.69200000       0.04900000       0.16540000
    74  H          0.30800000       0.95100000       0.83460000
    75  H         -0.00190000       0.61640000       0.17600000
    76  H          0.00190000       0.38360000       0.82400000
    77  H          0.97740000       0.63040000       0.05160000
    78  H          0.02260000       0.36960000       0.94840000
    79  H          0.68130000       0.04970000       0.04070000
    80  H          0.31870000       0.95030000       0.95930000
    81  N          0.87947000       0.81432000       0.41714900
    82  N          0.12053000       0.18568000       0.58285100
    83  N          0.82747000       0.84082000       0.03470900
    84  N          0.17253000       0.15918000       0.96529100
    85  C          0.83037000       0.94202000       0.37627110
    86  C          0.16963000       0.05798000       0.62372890
    87  C          0.91557000       0.69312000       0.38238100
    88  C          0.08443000       0.30688000       0.61761900
    89  C          0.90477000       0.69362000       0.30804100
    90  C          0.09523000       0.30638000       0.69195900
    91  C          0.81667000       0.95372000       0.30139100
    92  C          0.18333000       0.04628000       0.69860900
    93  C          0.85557000       0.82672000       0.26563100
    94  C          0.14443000       0.17328000       0.73436900
    95  C          0.84677000       0.83182000       0.18577100
    96  C          0.15323000       0.16818000       0.81422900
    97  C          0.75197000       0.96132000       0.14345110
    98  C          0.24803000       0.03868000       0.85654890
    99  C          0.93177000       0.70712000       0.14954110
   100  C          0.06823000       0.29288000       0.85045890
   101  C          0.91876000       0.71632000       0.07514110
   102  C          0.08124000       0.28368000       0.92485890
   103  C          0.74606000       0.96072000       0.06877110
   104  C          0.25394000       0.03928000       0.93122890
   105  H          0.31230000       0.60280000       0.47970000
   106  H          0.68770000       0.39720000       0.52030000
   107  H          0.33290000       0.44190000       0.50800000
   108  H          0.66710000       0.55810000       0.49200000
   109  H          0.45700000       0.60140000       0.59660000
   110  H          0.54300000       0.39860000       0.40340000
   111  O          0.36973000       0.56258180       0.58360800
   112  O          0.63027000       0.43741820       0.41639200
   113  C          0.38813000       0.52202000       0.51128110
   114  C          0.61187000       0.47798000       0.48871890
