data_BOKJAO
_symmetry_space_group_name_H-M    'P1'
_symmetry_Int_Tables_number       1
loop_
_symmetry_equiv_pos_site_id
_symmetry_equiv_pos_as_xyz
1 x,y,z
_cell_length_a                   7.39727
_cell_length_b                   9.33738
_cell_length_c                   18.114116
_cell_angle_alpha                80.5044
_cell_angle_beta                 82.0394
_cell_angle_gamma                75.1734
loop_
_atom_site_label
_atom_site_type_symbol
_atom_site_fract_x
_atom_site_fract_y
_atom_site_fract_z
     1  Cl         0.66664400       0.90882300       0.65101913
     2  Cl         0.33335600       0.09117700       0.34898087
     3  C          0.55890150       0.93284120       0.74098500
     4  C          0.44109850       0.06715880       0.25901500
     5  C          0.53534150       0.80600120       0.78866600
     6  C          0.46465850       0.19399880       0.21133400
     7  C          0.45112150       0.81528120       0.86345600
     8  C          0.54887850       0.18471880       0.13654400
     9  N          0.42337140       0.69152110       0.90942500
    10  N          0.57662860       0.30847890       0.09057500
    11  C          0.46726170       0.54222130       0.88732600
    12  C          0.53273830       0.45777870       0.11267400
    13  C          0.67281170       0.47005120       0.87919600
    14  C          0.32718830       0.52994880       0.12080400
    15  O          0.76531130       0.44293100       0.94276500
    16  O          0.23468870       0.55706900       0.05723500
    17  C          0.94913190       0.37445150       0.92214800
    18  C          0.05086810       0.62554850       0.07785200
    19  C          0.97415190       0.35991140       0.84814800
    20  C          0.02584810       0.64008860       0.15185200
    21  C          0.79427180       0.42141140       0.82027700
    22  C          0.20572820       0.57858860       0.17972300
    23  C          0.39843150       0.95906120       0.88826500
    24  C          0.60156850       0.04093880       0.11173500
    25  C          0.42498150       0.08471120       0.83840500
    26  C          0.57501850       0.91528880       0.16159500
    27  C          0.50046150       0.07559120       0.76385500
    28  C          0.49953850       0.92440880       0.23614500
    29  S          0.52309400       0.24165300       0.70406314
    30  S          0.47690600       0.75834700       0.29593686
    31  O          0.42573140       0.36250100       0.74589500
    32  O          0.57426860       0.63749900       0.25410500
    33  O          0.72050130       0.22758100       0.67883500
    34  O          0.27949870       0.77241900       0.32116500
    35  N          0.41947150       0.25844120       0.63040500
    36  N          0.58052850       0.74155880       0.36959500
    37  C          0.31086150       0.97751120       0.96625600
    38  C          0.68913850       0.02248880       0.03374400
    39  O          0.28492130       0.11323900       0.98383400
    40  O          0.71507870       0.88676100       0.01616600
    41  O          0.26550140       0.87510100       0.01034500
    42  O          0.73449860       0.12489900       0.98965500
    43  H          0.57570000       0.71320000       0.77020000
    44  H          0.42430000       0.28680000       0.22980000
    45  H          0.40520000       0.47970000       0.92660000
    46  H          0.59480000       0.52030000       0.07340000
    47  H          0.41710000       0.54570000       0.83900000
    48  H          0.58290000       0.45430000       0.16100000
    49  H          0.03570000       0.34530000       0.95800000
    50  H          0.96430000       0.65470000       0.04200000
    51  H          0.08860000       0.31660000       0.82120000
    52  H          0.91140000       0.68340000       0.17880000
    53  H          0.76410000       0.42740000       0.77040000
    54  H          0.23590000       0.57260000       0.22960000
    55  H          0.39250000       0.17790000       0.85610000
    56  H          0.60750000       0.82210000       0.14390000
    57  H          0.36890000       0.70490000       0.95290000
    58  H          0.63110000       0.29510000       0.04710000
    59  H          0.29730000       0.28040000       0.63420000
    60  H          0.70270000       0.71960000       0.36580000
    61  H          0.48480000       0.20940000       0.59270000
    62  H          0.51520000       0.79060000       0.40730000
    63  H          0.23550000       0.10970000       0.02750000
    64  H          0.76450000       0.89030000       0.97250000
    65  O          0.01668140       0.36204120       0.63941600
    66  O          0.98331860       0.63795880       0.36058400
    67  C          0.94058000       0.51284150       0.60723800
    68  C          0.05942000       0.48715850       0.39276200
    69  C          0.90900810       0.52461160       0.52503800
    70  C          0.09099190       0.47538840       0.47496200
    71  H          0.02970000       0.57280000       0.61170000
    72  H          0.97030000       0.42720000       0.38830000
    73  H          0.82040000       0.55150000       0.63600000
    74  H          0.17960000       0.44850000       0.36400000
    75  H          0.85140000       0.62870000       0.50700000
    76  H          0.14860000       0.37130000       0.49300000
    77  H          0.82230000       0.46140000       0.52050000
    78  H          0.17770000       0.53860000       0.47950000
    79  H          0.92200000       0.32180000       0.64970000
    80  H          0.07800000       0.67820000       0.35030000
    81  N          0.90321860       0.86708110       0.88291500
    82  N          0.09678140       0.13291890       0.11708500
    83  C          0.95750820       0.73708130       0.85447600
    84  C          0.04249180       0.26291870       0.14552400
    85  C          0.05167170       0.72323130       0.78309600
    86  C          0.94832830       0.27676870       0.21690400
    87  C          0.09151150       0.85024120       0.73822500
    88  C          0.90848850       0.14975880       0.26177500
    89  C          0.18806150       0.84217120       0.66120600
    90  C          0.81193850       0.15782880       0.33879400
    91  C          0.31122160       0.71074130       0.64069600
    92  C          0.68877840       0.28925870       0.35930400
    93  C          0.39760170       0.70994140       0.56743600
    94  C          0.60239830       0.29005860       0.43256400
    95  N          0.37337170       0.82927140       0.51441600
    96  N          0.62662830       0.17072860       0.48558400
    97  C          0.25502000       0.95505160       0.53449700
    98  C          0.74498000       0.04494840       0.46550300
    99  C          0.15870190       0.96655140       0.60557600
   100  C          0.84129810       0.03344860       0.39442400
   101  C          0.03632160       0.98511120       0.76844600
   102  C          0.96367840       0.01488880       0.23155400
   103  C          0.94316830      -0.01110870       0.84052600
   104  C          0.05683170       0.01110870       0.15947400
   105  H          0.92870000       0.65220000       0.88460000
   106  H          0.07130000       0.34780000       0.11540000
   107  H          0.08680000       0.62930000       0.76530000
   108  H          0.91320000       0.37070000       0.23470000
   109  H          0.33760000       0.62380000       0.67500000
   110  H          0.66240000       0.37620000       0.32500000
   111  H          0.47910000       0.62040000       0.55380000
   112  H          0.52090000       0.37960000       0.44620000
   113  H          0.23480000       0.03940000       0.49670000
   114  H          0.76520000       0.96060000       0.50330000
   115  H          0.07460000       0.05690000       0.61560000
   116  H          0.92540000       0.94310000       0.38440000
   117  H          0.06260000       0.07390000       0.74180000
   118  H          0.93740000       0.92610000       0.25820000
   119  H          0.90610000       0.07940000       0.86120000
   120  H          0.09390000       0.92060000       0.13880000
