data_BOLYAG
_symmetry_space_group_name_H-M    'P1'
_symmetry_Int_Tables_number       1
loop_
_symmetry_equiv_pos_site_id
_symmetry_equiv_pos_as_xyz
1 x,y,z
_cell_length_a                   16.08864
_cell_length_b                   12.86053
_cell_length_c                   10.11503
_cell_angle_alpha                90.0
_cell_angle_beta                 91.0602
_cell_angle_gamma                90.0
loop_
_atom_site_label
_atom_site_type_symbol
_atom_site_fract_x
_atom_site_fract_y
_atom_site_fract_z
     1  Br         0.16106200       0.70337200       0.66026200
     2  Br         0.83893800       0.20337200       0.83973800
     3  Br         0.83893800       0.29662800       0.33973800
     4  Br         0.16106200       0.79662800       0.16026200
     5  F          0.02971900       0.79583900       0.47306130
     6  F          0.97028100       0.29583900       0.02693870
     7  F          0.97028100       0.20416100       0.52693870
     8  F          0.02971900       0.70416100       0.97306130
     9  F          0.17000800       0.47926100       0.55489120
    10  F          0.82999200       0.97926100       0.94510880
    11  F          0.82999200       0.52073900       0.44510880
    12  F          0.17000800       0.02073900       0.05489120
    13  F          0.94723100       0.70738900       0.26995130
    14  F          0.05276900       0.20738900       0.23004870
    15  F          0.05276900       0.29261100       0.73004870
    16  F          0.94723100       0.79261100       0.76995130
    17  F          0.09143800       0.39417900       0.34541120
    18  F          0.90856200       0.89417900       0.15458880
    19  F          0.90856200       0.60582100       0.65458880
    20  F          0.09143800       0.10582100       0.84541120
    21  N          0.97625880       0.50507140       0.19548180
    22  N          0.02374120       0.00507140       0.30451820
    23  N          0.02374120       0.49492860       0.80451820
    24  N          0.97625880      -0.00507140       0.69548180
    25  C          0.01725110       0.54828140       0.30021180
    26  C          0.98274890       0.04828140       0.19978820
    27  C          0.98274890       0.45171860       0.69978820
    28  C          0.01725110       0.95171860       0.80021180
    29  C          0.04571120       0.69552140       0.44369190
    30  C          0.95428880       0.19552140       0.05630810
    31  C          0.95428880       0.30447860       0.55630810
    32  C          0.04571120       0.80447860       0.94369190
    33  C          0.11775110       0.53809150       0.48307190
    34  C          0.88224890       0.03809150       0.01692810
    35  C          0.88224890       0.46190850       0.51692810
    36  C          0.11775110       0.96190850       0.98307190
    37  C          0.10378110       0.64106150       0.51829180
    38  C          0.89621890       0.14106150       0.98170820
    39  C          0.89621890       0.35893850       0.48170820
    40  C          0.10378110       0.85893850       0.01829180
    41  C          0.00346120       0.65094140       0.33937190
    42  C         -0.00346120       0.15094140       0.16062810
    43  C         -0.00346120       0.34905860       0.66062810
    44  C          0.00346120       0.84905860       0.83937190
    45  C          0.07626110       0.49474140       0.37642190
    46  C          0.92373890      -0.00525860       0.12357810
    47  C          0.92373890       0.50525860       0.62357810
    48  C          0.07626110       0.00525860       0.87642190
    49  H          0.93198600       0.53420000       0.16630000
    50  H          0.06801400       0.03420000       0.33370000
    51  H          0.06801400       0.46580000       0.83370000
    52  H          0.93198600       0.96580000       0.66630000
    53  H          0.98428100       0.44181500       0.17730000
    54  H          0.01571900       0.94181500       0.32270000
    55  H          0.01571900       0.55818500       0.82270000
    56  H          0.98428100       0.05818500       0.67730000
    57  Br         0.33254200       0.73319200       0.35411200
    58  Br         0.66745800       0.23319200       0.14588800
    59  Br         0.66745800       0.26680800       0.64588800
    60  Br         0.33254200       0.76680800       0.85411200
    61  F          0.40950800       0.40930900       0.63939130
    62  F          0.59049200       0.90930900       0.86060870
    63  F          0.59049200       0.59069100       0.36060870
    64  F          0.40950800       0.09069100       0.13939130
    65  F          0.32245800       0.50600110       0.44673130
    66  F          0.67754200       0.00600110       0.05326870
    67  F          0.67754200       0.49399890       0.55326870
    68  F          0.32245800      -0.00600110       0.94673130
    69  F          0.47144900       0.81487100       0.53476140
    70  F          0.52855100       0.31487100       0.96523860
    71  F          0.52855100       0.18512900       0.46523860
    72  F          0.47144900       0.68512900       0.03476140
    73  F          0.55993100       0.71643110       0.72371150
    74  F          0.44006900       0.21643110       0.77628850
    75  F          0.44006900       0.28356890       0.27628850
    76  F          0.55993100       0.78356890       0.22371150
    77  N          0.53193120       0.51081160       0.78432000
    78  N          0.46806880       0.01081160       0.71568000
    79  N          0.46806880       0.48918840       0.21568000
    80  N          0.53193120      -0.01081160       0.28432000
    81  C          0.48701120       0.56013160       0.68841190
    82  C          0.51298880       0.06013160       0.81158810
    83  C          0.51298880       0.43986840       0.31158810
    84  C          0.48701120       0.93986840       0.18841190
    85  C          0.42423120       0.51076150       0.61468190
    86  C          0.57576880       0.01076150       0.88531810
    87  C          0.57576880       0.48923850       0.38531810
    88  C          0.42423120      -0.01076150       0.11468190
    89  C          0.37922120       0.56028170       0.51647190
    90  C          0.62077880       0.06028170       0.98352810
    91  C          0.62077880       0.43971830       0.48352810
    92  C          0.37922120       0.93971830       0.01647190
    93  C          0.45543130       0.71340160       0.55902000
    94  C          0.54456870       0.21340160       0.94098000
    95  C          0.54456870       0.28659840       0.44098000
    96  C          0.45543130       0.78659840       0.05902000
    97  C          0.50059130       0.66380160       0.65572000
    98  C          0.49940870       0.16380160       0.84428000
    99  C          0.49940870       0.33619840       0.34428000
   100  C          0.50059130       0.83619840       0.15572000
   101  C          0.39347120       0.66396160       0.48713190
   102  C          0.60652880       0.16396160       0.01286810
   103  C          0.60652880       0.33603840       0.51286810
   104  C          0.39347120       0.83603840      -0.01286810
   105  H          0.52220000       0.44791500       0.79730000
   106  H          0.47780000       0.94791500       0.70270000
   107  H          0.47780000       0.55208500       0.20270000
   108  H          0.52220000       0.05208500       0.29730000
   109  H          0.57661400       0.53620000       0.81730000
   110  H          0.42338600       0.03620000       0.68270000
   111  H          0.42338600       0.46380000       0.18270000
   112  H          0.57661400       0.96380000       0.31730000
   113  N          0.81918100       0.56971140       0.06687170
   114  N          0.18081900       0.06971140       0.43312830
   115  N          0.18081900       0.43028860       0.93312830
   116  N          0.81918100       0.93028860       0.56687170
   117  N          0.68485110       0.57136140       0.92499170
   118  N          0.31514890       0.07136140       0.57500830
   119  N          0.31514890       0.42863860       0.07500830
   120  N          0.68485110       0.92863860       0.42499170
   121  C          0.81561140       0.47702190       0.98122000
   122  C          0.18438860       0.97702190       0.51878000
   123  C          0.18438860       0.52297810       0.01878000
   124  C          0.81561140       0.02297810       0.48122000
   125  H          0.81568900       0.41348400       0.03650300
   126  H          0.18431100       0.91348400       0.46349700
   127  H          0.18431100       0.58651600       0.96349700
   128  H          0.81568900       0.08651600       0.53650300
   129  H          0.86524100       0.47504800       0.92486700
   130  H          0.13475900       0.97504800       0.57513300
   131  H          0.13475900       0.52495200       0.07513300
   132  H          0.86524100       0.02495200       0.42486700
   133  C          0.66640140       0.56602000       0.06512000
   134  C          0.33359860       0.06602000       0.43488000
   135  C          0.33359860       0.43398000       0.93488000
   136  C          0.66640140       0.93398000       0.56512000
   137  H          0.63513700       0.50139900       0.08314900
   138  H          0.36486300       0.00139900       0.41685100
   139  H          0.36486300       0.49860100       0.91685100
   140  H          0.63513700      -0.00139900       0.58314900
   141  H          0.63098500       0.62577000       0.08929500
   142  H          0.36901500       0.12577000       0.41070500
   143  H          0.36901500       0.37423000       0.91070500
   144  H          0.63098500       0.87423000       0.58929500
   145  C          0.74676150       0.56762000       0.15022000
   146  C          0.25323850       0.06762000       0.34978000
   147  C          0.25323850       0.43238000       0.84978000
   148  C          0.74676150       0.93238000       0.65022000
   149  H          0.74696300       0.62974300       0.20805100
   150  H          0.25303700       0.12974300       0.29194900
   151  H          0.25303700       0.37025700       0.79194900
   152  H          0.74696300       0.87025700       0.70805100
   153  H          0.74888600       0.50513300       0.20732400
   154  H          0.25111400       0.00513300       0.29267600
   155  H          0.25111400       0.49486700       0.79267600
   156  H          0.74888600      -0.00513300       0.70732400
   157  C          0.73611150       0.47962000       0.89312000
   158  C          0.26388850       0.97962000       0.60688000
   159  C          0.26388850       0.52038000       0.10688000
   160  C          0.73611150       0.02038000       0.39312000
   161  H          0.75166100       0.48226500       0.79892400
   162  H          0.24833900       0.98226500       0.70107600
   163  H          0.24833900       0.51773500       0.20107600
   164  H          0.75166100       0.01773500       0.29892400
   165  H          0.70347300       0.41544800       0.90714400
   166  H          0.29652700       0.91544800       0.59285600
   167  H          0.29652700       0.58455200       0.09285600
   168  H          0.70347300       0.08455200       0.40714400
   169  C          0.73432180       0.66442000       0.90003000
   170  C          0.26567820       0.16442000       0.59997000
   171  C          0.26567820       0.33558000       0.09997000
   172  C          0.73432180       0.83558000       0.40003000
   173  H          0.70197300       0.72702900       0.92341000
   174  H          0.29802700       0.22702900       0.57659000
   175  H          0.29802700       0.27297100       0.07659000
   176  H          0.70197300       0.77297100       0.42341000
   177  H          0.74718000       0.66836800       0.80483400
   178  H          0.25282000       0.16836800       0.69516600
   179  H          0.25282000       0.33163200       0.19516600
   180  H          0.74718000       0.83163200       0.30483400
   181  C          0.81619180       0.66192000       0.98253000
   182  C          0.18380820       0.16192000       0.51747000
   183  C          0.18380820       0.33808000       0.01747000
   184  C          0.81619180       0.83808000       0.48253000
   185  H          0.86409800       0.66135400       0.92243500
   186  H          0.13590200       0.16135400       0.57756500
   187  H          0.13590200       0.33864600       0.07756500
   188  H          0.86409800       0.83864600       0.42243500
   189  H          0.82018700       0.72520000       0.03795600
   190  H          0.17981300       0.22520000       0.46204400
   191  H          0.17981300       0.27480000       0.96204400
   192  H          0.82018700       0.77480000       0.53795600
