data_BOMLUO
_symmetry_space_group_name_H-M    'P1'
_symmetry_Int_Tables_number       1
loop_
_symmetry_equiv_pos_site_id
_symmetry_equiv_pos_as_xyz
1 x,y,z
_cell_length_a                   8.30312
_cell_length_b                   12.87843
_cell_length_c                   22.74357
_cell_angle_alpha                99.8212
_cell_angle_beta                 97.8972
_cell_angle_gamma                107.0262
loop_
_atom_site_label
_atom_site_type_symbol
_atom_site_fract_x
_atom_site_fract_y
_atom_site_fract_z
     1  Br         0.27386600       0.27256400       0.61740200
     2  Br         0.72613400       0.72743600       0.38259800
     3  F          0.95283000       0.19059180       0.51613900
     4  F          0.04717000       0.80940820       0.48386100
     5  F          0.86653000       0.28562190       0.42625900
     6  F          0.13347000       0.71437810       0.57374100
     7  F          0.46053000       0.49769190       0.59153100
     8  F          0.53947000       0.50230810       0.40846900
     9  F          0.37043000       0.59216190       0.50178100
    10  F          0.62957000       0.40783810       0.49821900
    11  N          0.07995000       0.49013000       0.41401150
    12  N          0.92005000       0.50987000       0.58598850
    13  C          0.21165000       0.34073000       0.55613160
    14  C          0.78835000       0.65927000       0.44386840
    15  C          0.01645000       0.33913000       0.46708160
    16  C         -0.01645000       0.66087000       0.53291840
    17  C          0.06075000       0.29013000       0.51303160
    18  C          0.93925000       0.70987000       0.48696840
    19  C          0.26845000       0.49193000       0.50480170
    20  C          0.73155000       0.50807000       0.49519830
    21  C          0.11855000       0.44093000       0.46062160
    22  C          0.88145000       0.55907000       0.53937840
    23  C          0.31275000       0.44293000       0.55091160
    24  C          0.68725000       0.55707000       0.44908840
    25  H          0.14250000       0.55811900       0.41871900
    26  H          0.85750000       0.44188100       0.58128100
    27  H         -0.01460000       0.45530000       0.38901600
    28  H          0.01460000       0.54470000       0.61098400
    29  Br        -0.01095400       0.78537400       0.25433200
    30  Br         0.01095400       0.21462600       0.74566800
    31  F          0.39783000       0.79013190       0.44956900
    32  F          0.60217000       0.20986810       0.55043100
    33  F          0.11443000       0.69806180       0.36337100
    34  F          0.88557000       0.30193820       0.63662900
    35  F          0.28793000      -0.00169810       0.26719900
    36  F          0.71207000       0.00169810       0.73280100
    37  F          0.57843000       0.08593190       0.35189100
    38  F          0.42157000       0.91406810       0.64810900
    39  N          0.64335000      -0.00927000       0.44704160
    40  N          0.35665000       0.00927000       0.55295840
    41  C          0.19215000       0.84683000       0.31322160
    42  C          0.80785000       0.15317000       0.68677840
    43  C          0.22635000       0.79643000       0.36052160
    44  C          0.77365000       0.20357000       0.63947840
    45  C          0.31335000       0.94553000       0.31242160
    46  C          0.68665000       0.05447000       0.68757840
    47  C          0.49655000       0.94223000       0.40421170
    48  C          0.50345000       0.05777000       0.59578830
    49  C          0.37225000       0.84353000       0.40440150
    50  C          0.62775000       0.15647000       0.59559850
    51  C          0.46025000      -0.00947000       0.35531170
    52  C          0.53975000       0.00947000       0.64468830
    53  H          0.70550000       0.05520000       0.44531900
    54  H          0.29450000       0.94480000       0.55468100
    55  H          0.65860000       0.95530000       0.47481500
    56  H          0.34140000       0.04470000       0.52518500
    57  Br         0.82649400       0.84876600       0.12254200
    58  Br         0.17350600       0.15123400       0.87745800
    59  F          0.56897000       0.61258000       0.09142100
    60  F          0.43103000       0.38742000       0.90857900
    61  F          0.69007000       0.94493810       0.02013100
    62  F          0.30993000       0.05506190       0.97986900
    63  F          0.42047000       0.84899810       0.92816900
    64  F          0.57953000       0.15100190       0.07183100
    65  F          0.29837000       0.51778000      -0.00057110
    66  F          0.70163000       0.48222000       0.00057110
    67  N          0.21625000       0.62987000       0.91314830
    68  N          0.78375000       0.37013000       0.08685170
    69  C          0.59645000       0.83857000       0.01517160
    70  C          0.40355000       0.16143000       0.98482840
    71  C          0.63825000       0.78057000       0.05808160
    72  C          0.36175000       0.21943000       0.94191840
    73  C          0.53604000       0.67307000       0.05100160
    74  C          0.46396000       0.32693000       0.94899840
    75  C          0.35365000       0.68007000       0.96021840
    76  C          0.64635000       0.31993000       0.03978160
    77  C          0.45805000       0.78827000       0.96810840
    78  C          0.54195000       0.21173000       0.03189160
    79  C          0.39774000       0.62357000       0.00379170
    80  C          0.60226000       0.37643000      -0.00379170
    81  H          0.18440000       0.66870000       0.88928300
    82  H          0.81560000       0.33130000       0.11071700
    83  H          0.15250000       0.56580000       0.91598100
    84  H          0.84750000       0.43420000       0.08401900
    85  Br         0.58140300       0.34853400       0.75110800
    86  Br         0.41859700       0.65146600       0.24889200
    87  F          0.97317000       0.33938190       0.94669900
    88  F          0.02683000       0.66061810       0.05330100
    89  F          0.42207000       0.11052000       0.76593900
    90  F          0.57793000       0.88948000       0.23406100
    91  F          0.51747000       0.01146190       0.85248890
    92  F          0.48253000      -0.01146190       0.14751110
    93  F          0.88177000       0.43881190       0.86044890
    94  F          0.11823000       0.56118810       0.13955110
    95  N          0.79355000       0.11983000       0.94643850
    96  N          0.20645000       0.88017000       0.05356150
    97  C          0.74855000       0.17223000       0.90235840
    98  C          0.25145000       0.82777000       0.09764160
    99  C          0.60805000       0.11733000       0.85460840
   100  C          0.39195000       0.88267000       0.14539160
   101  C          0.64815000       0.27793000       0.81118830
   102  C          0.35185000       0.72207000       0.18881170
   103  C          0.83615000       0.28143000       0.90184840
   104  C          0.16385000       0.71857000       0.09815160
   105  C          0.55895000       0.16923000       0.81042840
   106  C          0.44105000       0.83077000       0.18957160
   107  C          0.78785000       0.33273000       0.85719830
   108  C          0.21215000       0.66727000       0.14280170
   109  H          0.87860000       0.15930000       0.97568500
   110  H          0.12140000       0.84070000       0.02431500
   111  H          0.72550000       0.05320000       0.94368200
   112  H          0.27450000       0.94680000       0.05631800
   113  N          0.77294000       0.90703000       0.55315140
   114  N          0.22706000       0.09297000       0.44684860
   115  N          0.07484000       0.72573000       0.81314140
   116  N          0.92516000       0.27427000       0.18685860
   117  C         -0.00655000       0.92653000       0.63872170
   118  C          0.00655000       0.07347000       0.36127830
   119  H          0.10588500       0.96666900       0.66162500
   120  H          0.89411500       0.03333100       0.33837500
   121  C          0.73055000       0.77963000       0.61970170
   122  C          0.26945000       0.22037000       0.38029830
   123  H          0.65638800       0.71569200       0.62911900
   124  H          0.34361200       0.28430800       0.37088100
   125  C          0.89315000       0.83463000       0.65602160
   126  C          0.10685000       0.16537000       0.34397840
   127  C          0.95505000       0.79683000       0.71052160
   128  C          0.04495000       0.20317000       0.28947840
   129  C          0.93005000       0.95993000       0.58793170
   130  C          0.06995000       0.04007000       0.41206830
   131  H          0.00140500       0.02348900       0.57729000
   132  H         -0.00140500       0.97651100       0.42271000
   133  C          0.89155000       0.68743000       0.71560170
   134  C          0.10845000       0.31257000       0.28439830
   135  H          0.80497900       0.63389700       0.68417100
   136  H          0.19502100       0.36610300       0.31582900
   137  C          0.95556000       0.65674000       0.76698180
   138  C          0.04444000       0.34326000       0.23301820
   139  H          0.91076400       0.58100700       0.76932300
   140  H          0.08923600       0.41899300       0.23067700
   141  C          0.07915000       0.87054000       0.75889170
   142  C          0.92085000       0.12946000       0.24110830
   143  H          0.12582700       0.94680500       0.75798400
   144  H          0.87417300       0.05319500       0.24201600
   145  C          0.67715000       0.81853000       0.56984170
   146  C          0.32285000       0.18147000       0.43015830
   147  H          0.56531500       0.77956800       0.54606300
   148  H          0.43468500       0.22043200       0.45393700
   149  C          0.13375000       0.83144000       0.80832190
   150  C          0.86625000       0.16856000       0.19167810
   151  H          0.21849000       0.88308700       0.84093000
   152  H          0.78151000       0.11691300       0.15907000
   153  N          0.08474000       0.20993000       0.05388140
   154  N          0.91526000       0.79007000       0.94611860
   155  N          0.76554000       0.41373000       0.31509140
   156  N          0.23446000       0.58627000       0.68490860
   157  C          0.50085000       0.33223000       0.21052160
   158  C          0.49915000       0.66777000       0.78947840
   159  C          0.35805000       0.28913000       0.15611160
   160  C          0.64195000       0.71087000       0.84388840
   161  C          0.62745000       0.43433000       0.21982170
   162  C          0.37255000       0.56567000       0.78017830
   163  H          0.62777700       0.47857800       0.19039100
   164  H          0.37222300       0.52142200       0.80960900
   165  C          0.31515000       0.35953000       0.12084170
   166  C          0.68485000       0.64047000       0.87915830
   167  H          0.37920900       0.43667600       0.13075800
   168  H          0.62079100       0.56332400       0.86924200
   169  C          0.12575000       0.14323000       0.08766170
   170  C          0.87425000       0.85677000       0.91233830
   171  H          0.05879100       0.06656800       0.07659000
   172  H          0.94120900       0.93343200       0.92341000
   173  C          0.18075000       0.31743000       0.07200170
   174  C          0.81925000       0.68257000       0.92799830
   175  H          0.15374900       0.36783900       0.04944700
   176  H          0.84625100       0.63216100       0.95055300
   177  C          0.25785000       0.17733000       0.13736170
   178  C          0.74215000       0.82267000       0.86263830
   179  H          0.28098100       0.12468600       0.15897300
   180  H          0.71901900       0.87531400       0.84102700
   181  C          0.64536000       0.31554000       0.30517190
   182  C          0.35464000       0.68446000       0.69482810
   183  H          0.65119400       0.27165200       0.33448800
   184  H          0.34880600       0.72834800       0.66551200
   185  C          0.75315000       0.47153000       0.27212180
   186  C          0.24685000       0.52847000       0.72787820
   187  H          0.83636900       0.54297400       0.27794900
   188  H          0.16363100       0.45702600       0.72205100
   189  C          0.51136000       0.27214000       0.25509180
   190  C          0.48864000       0.72786000       0.74490820
   191  H          0.42733700       0.20171700       0.25135700
   192  H          0.57266300       0.79828300       0.74864300
