data_BOMTUU
_symmetry_space_group_name_H-M    'P1'
_symmetry_Int_Tables_number       1
loop_
_symmetry_equiv_pos_site_id
_symmetry_equiv_pos_as_xyz
1 x,y,z
_cell_length_a                   5.034512
_cell_length_b                   5.104912
_cell_length_c                   29.1137
_cell_angle_alpha                85.7936
_cell_angle_beta                 87.4697
_cell_angle_gamma                88.0335
loop_
_atom_site_label
_atom_site_type_symbol
_atom_site_fract_x
_atom_site_fract_y
_atom_site_fract_z
     1  N          0.92386000       0.37073000       0.24204600
     2  N          0.07614000       0.62927000       0.75795400
     3  C          0.06374000       0.40743000       0.27900600
     4  C          0.93626000       0.59257000       0.72099400
     5  H          0.20690000       0.28750000       0.28620000
     6  H          0.79310000       0.71250000       0.71380000
     7  C          0.00983000       0.61303000       0.30742600
     8  C         -0.00983000       0.38697000       0.69257400
     9  C          0.79976000       0.78764000       0.29662600
    10  C          0.20024000       0.21236000       0.70337400
    11  H          0.75810000       0.93100000       0.31500000
    12  H          0.24190000       0.06900000       0.68500000
    13  C          0.65236000       0.74964000       0.25878700
    14  C          0.34764000       0.25036000       0.74121300
    15  H          0.50660000       0.86490000       0.25100000
    16  H          0.49340000       0.13510000       0.74900000
    17  C          0.72136000       0.54034000       0.23251700
    18  C          0.27864000       0.45966000       0.76748300
    19  H          0.62020000       0.51590000       0.20650000
    20  H          0.37980000       0.48410000       0.79350000
    21  C          0.17873000       0.66043000       0.34677600
    22  C          0.82127000       0.33957000       0.65322400
    23  N          0.30493000       0.45113000       0.36729500
    24  N          0.69507000       0.54887000       0.63270500
    25  H          0.27260000       0.29260000       0.35961000
    26  H          0.72740000       0.70740000       0.64039000
    27  O          0.20113000       0.88483000       0.35918500
    28  O          0.79887000       0.11517000       0.64081500
    29  C          0.48344000       0.48293000       0.40454600
    30  C          0.51656000       0.51707000       0.59545400
    31  H          0.38130000       0.55530000       0.43080000
    32  H          0.61870000       0.44470000       0.56920000
    33  H          0.62140000       0.60940000       0.39370000
    34  H          0.37860000       0.39060000       0.60630000
    35  C          0.61584000       0.22313000       0.42037600
    36  C          0.38416000       0.77687000       0.57962400
    37  H          0.72530000       0.15560000       0.39450000
    38  H          0.27470000       0.84440000       0.60550000
    39  H          0.47730000       0.09390000       0.42950000
    40  H          0.52270000       0.90610000       0.57050000
    41  C          0.79154000       0.24973000       0.46102600
    42  C          0.20846000       0.75027000       0.53897400
    43  H          0.93660000       0.37030000       0.45120000
    44  H          0.06340000       0.62970000       0.54880000
    45  H          0.68430000       0.32890000       0.48610000
    46  H          0.31570000       0.67110000       0.51390000
    47  C          0.91254000      -0.01293000       0.47955600
    48  C          0.08746000       0.01293000       0.52044400
    49  H          0.02040000       0.90850000       0.45450000
    50  H         -0.02040000       0.09150000       0.54550000
    51  H          0.76740000       0.86630000       0.48910000
    52  H          0.23260000       0.13370000       0.51090000
    53  C          0.30004000       0.86267000       0.10846600
    54  C          0.69996000       0.13733000       0.89153400
    55  I          0.14003200       0.07685200       0.16522430
    56  I          0.85996800       0.92314800       0.83477570
    57  F          0.12273000       0.68858000       0.09826400
    58  F          0.87727000       0.31142000       0.90173600
    59  F          0.52253000       0.72977000       0.12095500
    60  F          0.47747000       0.27023000       0.87904500
    61  C          0.36103000       0.04823000       0.06491600
    62  C          0.63897000       0.95177000       0.93508400
    63  F          0.13642000       0.18172000       0.05405400
    64  F          0.86358000       0.81828000       0.94594600
    65  F          0.54223000       0.21732000       0.07603400
    66  F          0.45777000       0.78268000       0.92396600
    67  C          0.47093000       0.90647000       0.02193600
    68  C          0.52907000       0.09353000       0.97806400
    69  F          0.29293000       0.73338000       0.01166400
    70  F          0.70707000       0.26662000       0.98833600
    71  F          0.69793000       0.77628000       0.03313400
    72  F          0.30207000       0.22372000       0.96686600
