data_BOMVUW
_symmetry_space_group_name_H-M    'P1'
_symmetry_Int_Tables_number       1
loop_
_symmetry_equiv_pos_site_id
_symmetry_equiv_pos_as_xyz
1 x,y,z
_cell_length_a                   4.977212
_cell_length_b                   10.6553
_cell_length_c                   12.1693
_cell_angle_alpha                71.0672
_cell_angle_beta                 88.8653
_cell_angle_gamma                86.9242
loop_
_atom_site_label
_atom_site_type_symbol
_atom_site_fract_x
_atom_site_fract_y
_atom_site_fract_z
     1  I          0.42092400       0.78461618       0.80657516
     2  I          0.57907600       0.21538382       0.19342484
     3  F          0.76854000      -0.00818000       0.81967160
     4  F          0.23146000       0.00818000       0.18032840
     5  F          0.35124000       0.06271160       0.78828150
     6  F          0.64876000       0.93728840       0.21171850
     7  F          0.64173000       0.83699160       0.03965140
     8  F          0.35827000       0.16300840       0.96034860
     9  F          0.21953000       0.90447160       0.00883140
    10  F          0.78047000       0.09552840      -0.00883140
    11  C          0.51446000       0.95933000       0.84962000
    12  C          0.48554000       0.04067000       0.15038000
    13  C          0.47425000       0.93943000       0.97972000
    14  C          0.52575000       0.06057000       0.02028000
    15  O          0.46504000       0.31702000       0.56792170
    16  O          0.53496000       0.68298000       0.43207830
    17  N          0.22005000       0.56162000       0.76262000
    18  N          0.77995000       0.43838000       0.23738000
    19  N          0.03375000       0.26442000       0.55572000
    20  N          0.96625000       0.73558000       0.44428000
    21  H          0.86960000       0.27630000       0.57230000
    22  H          0.13040000       0.72370000       0.42770000
    23  C          0.27686000       0.49783000       0.68642000
    24  C          0.72314000       0.50217000       0.31358000
    25  H          0.41990000       0.52730000       0.63300000
    26  H          0.58010000       0.47270000       0.36700000
    27  C          0.01796000       0.51863000       0.83743000
    28  C         -0.01796000       0.48137000       0.16257000
    29  H         -0.02480000       0.56370000       0.89170000
    30  H          0.02480000       0.43630000       0.10830000
    31  C          0.86824000       0.41263000       0.83993000
    32  C          0.13176000       0.58737000       0.16007000
    33  H          0.72750000       0.38490000       0.89500000
    34  H          0.27250000       0.61510000       0.10500000
    35  C          0.92834000       0.34723000       0.76012000
    36  C          0.07166000       0.65277000       0.23988000
    37  H          0.82830000       0.27400000       0.75930000
    38  H          0.17170000       0.72600000       0.24070000
    39  C          0.13655000       0.39003000       0.68132000
    40  C          0.86345000       0.60997000       0.31868000
    41  C          0.22565000       0.32103000       0.59602000
    42  C          0.77435000       0.67897000       0.40398000
    43  C          0.09186000       0.17983000       0.48473000
    44  C          0.90814000       0.82017000       0.51527000
    45  H          0.28910000       0.16510000       0.47940000
    46  H          0.71090000       0.83490000       0.52060000
    47  H          0.02250000       0.22490000       0.40520000
    48  H         -0.02250000       0.77510000       0.59480000
    49  C          0.96464000       0.04663000       0.53502000
    50  C          0.03536000       0.95337000       0.46498000
    51  H          0.76670000       0.06140000       0.53660000
    52  H          0.23330000       0.93860000       0.46340000
    53  H          0.02650000       0.00400000       0.61610000
    54  H          0.97350000      -0.00400000       0.38390000
