data_BOMVIK
_symmetry_space_group_name_H-M    'P1'
_symmetry_Int_Tables_number       1
loop_
_symmetry_equiv_pos_site_id
_symmetry_equiv_pos_as_xyz
1 x,y,z
_cell_length_a                   5.05284
_cell_length_b                   5.11044
_cell_length_c                   29.8702
_cell_angle_alpha                86.3862
_cell_angle_beta                 87.9302
_cell_angle_gamma                87.7762
loop_
_atom_site_label
_atom_site_type_symbol
_atom_site_fract_x
_atom_site_fract_y
_atom_site_fract_z
     1  N          0.96836000       0.57334000       0.22186700
     2  N          0.03164000       0.42666000       0.77813300
     3  C          0.12264000       0.63904000       0.18592700
     4  C          0.87736000       0.36096000       0.81407300
     5  H          0.26870000       0.52450000       0.17890000
     6  H          0.73130000       0.47550000       0.82110000
     7  C          0.08174000       0.86534000       0.15826700
     8  C          0.91826000       0.13466000       0.84173300
     9  C          0.86596000       0.03164000       0.16868700
    10  C          0.13404000       0.96836000       0.83131300
    11  H          0.83150000       0.18860000       0.15080000
    12  H          0.16850000       0.81140000       0.84920000
    13  C          0.70266000       0.96455000       0.20559800
    14  C          0.29734000       0.03545000       0.79440200
    15  H          0.55330000       0.07340000       0.21320000
    16  H          0.44670000       0.92660000       0.78680000
    17  C          0.76176000       0.73564000       0.23114800
    18  C          0.23824000       0.26436000       0.76885200
    19  H          0.65010000       0.69140000       0.25650000
    20  H          0.34990000       0.30860000       0.74350000
    21  C          0.26704000       0.94214000       0.12005700
    22  C          0.73296000       0.05786000       0.87994300
    23  N          0.40303000       0.74963000       0.09990600
    24  N          0.59697000       0.25037000       0.90009400
    25  H          0.36350000       0.60260000       0.10521000
    26  H          0.63650000       0.39740000       0.89479000
    27  O          0.29403000       0.17663000       0.10801500
    28  O          0.70597000       0.82337000       0.89198500
    29  C          0.59594000       0.81034000       0.06371700
    30  C          0.40406000       0.18966000       0.93628300
    31  H          0.72690000       0.93000000       0.07420000
    32  H          0.27310000       0.07000000       0.92580000
    33  H          0.50460000       0.90140000       0.03810000
    34  H          0.49540000       0.09860000       0.96190000
    35  C          0.73884000       0.56344000       0.04833700
    36  C          0.26116000       0.43656000       0.95166300
    37  H          0.60680000       0.43960000       0.03960000
    38  H          0.39320000       0.56040000       0.96040000
    39  H          0.83810000       0.47770000       0.07360000
    40  H          0.16190000       0.52230000       0.92640000
    41  C          0.93084000       0.62304000       0.00864700
    42  C          0.06916000       0.37696000       0.99135300
    43  H          0.83220000       0.71550000       0.98400000
    44  H          0.16780000       0.28450000       0.01600000
    45  H          0.06620000       0.74180000       0.01790000
    46  H          0.93380000       0.25820000       0.98210000
    47  C          0.28404000       0.96126000       0.35203700
    48  C          0.71596000       0.03874000       0.64796300
    49  I          0.14994200       0.21997200       0.29660240
    50  I          0.85005800       0.78002800       0.70339760
    51  F          0.10183000       0.77947000       0.36145500
    52  F          0.89817000       0.22053000       0.63854500
    53  F          0.51183000       0.83627000       0.33972500
    54  F          0.48817000       0.16373000       0.66027500
    55  C          0.32754000       0.11134000       0.39448700
    56  C          0.67246000       0.88866000       0.60551300
    57  F          0.09742000       0.23802000       0.40497400
    58  F          0.90258000       0.76198000       0.59502600
    59  F          0.51193000       0.29052000       0.38388500
    60  F          0.48807000       0.70948000       0.61611500
    61  C          0.41814000       0.93656000       0.43622700
    62  C          0.58186000       0.06344000       0.56377300
    63  F          0.23713000       0.75388000       0.44548400
    64  F          0.76287000       0.24612000       0.55451600
    65  F          0.65142000       0.81757000       0.42524400
    66  F          0.34858000       0.18243000       0.57475600
    67  C          0.45344000       0.08794000       0.47931700
    68  C          0.54656000       0.91206000       0.52068300
    69  F          0.21963000       0.20583000       0.49015400
    70  F          0.78037000       0.79417000       0.50984600
    71  F          0.63243000       0.27332000       0.46989400
    72  F          0.36757000       0.72668000       0.53010600
