data_BOMVOQ
_symmetry_space_group_name_H-M    'P1'
_symmetry_Int_Tables_number       1
loop_
_symmetry_equiv_pos_site_id
_symmetry_equiv_pos_as_xyz
1 x,y,z
_cell_length_a                   40.0595
_cell_length_b                   5.66955
_cell_length_c                   9.782812
_cell_angle_alpha                90.0
_cell_angle_beta                 102.9593
_cell_angle_gamma                90.0
loop_
_atom_site_label
_atom_site_type_symbol
_atom_site_fract_x
_atom_site_fract_y
_atom_site_fract_z
     1  I          0.80334230       0.50254618       0.09578211
     2  I          0.19665770       0.50254618       0.40421789
     3  I          0.30334230       0.00254618       0.09578211
     4  I          0.69665770       0.00254618       0.40421789
     5  I          0.19665770       0.49745382       0.90421789
     6  I          0.80334230       0.49745382       0.59578211
     7  I          0.69665770      -0.00254618       0.90421789
     8  I          0.30334230      -0.00254618       0.59578211
     9  F          0.74811300       0.57722000       0.85113880
    10  F          0.25188700       0.57722000       0.64886120
    11  F          0.24811300       0.07722000       0.85113880
    12  F          0.75188700       0.07722000       0.64886120
    13  F          0.25188700       0.42278000       0.14886120
    14  F          0.74811300       0.42278000       0.35113880
    15  F          0.75188700       0.92278000       0.14886120
    16  F          0.24811300       0.92278000       0.35113880
    17  F          0.77760300       0.89592000       0.91397870
    18  F          0.22239700       0.89592000       0.58602130
    19  F          0.27760300       0.39592000       0.91397870
    20  F          0.72239700       0.39592000       0.58602130
    21  F          0.22239700       0.10408000       0.08602130
    22  F          0.77760300       0.10408000       0.41397870
    23  F          0.72239700       0.60408000       0.08602130
    24  F          0.27760300       0.60408000       0.41397870
    25  C          0.76354500       0.70763000       0.96229820
    26  C          0.23645500       0.70763000       0.53770180
    27  C          0.26354500       0.20763000       0.96229820
    28  C          0.73645500       0.20763000       0.53770180
    29  C          0.23645500       0.29237000       0.03770180
    30  C          0.76354500       0.29237000       0.46229820
    31  C          0.73645500       0.79237000       0.03770180
    32  C          0.26354500       0.79237000       0.46229820
    33  O          0.94253300       0.43052000       0.70317130
    34  O          0.05746700       0.43052000       0.79682870
    35  O          0.44253300       0.93052000       0.70317130
    36  O          0.55746700       0.93052000       0.79682870
    37  O          0.05746700       0.56948000       0.29682870
    38  O          0.94253300       0.56948000       0.20317130
    39  O          0.55746700       0.06948000       0.29682870
    40  O          0.44253300       0.06948000       0.20317130
    41  N          0.85751400       0.24673000       0.29288160
    42  N          0.14248600       0.24673000       0.20711840
    43  N          0.35751400       0.74673000       0.29288160
    44  N          0.64248600       0.74673000       0.20711840
    45  N          0.14248600       0.75327000       0.70711840
    46  N          0.85751400       0.75327000       0.79288160
    47  N          0.64248600       0.25327000       0.70711840
    48  N          0.35751400       0.25327000       0.79288160
    49  N          0.94835400       0.59183000       0.49929150
    50  N          0.05164600       0.59183000       0.00070850
    51  N          0.44835400       0.09183000       0.49929150
    52  N          0.55164600       0.09183000       0.00070850
    53  N          0.05164600       0.40817000       0.50070850
    54  N          0.94835400       0.40817000      -0.00070850
    55  N          0.55164600       0.90817000       0.50070850
    56  N          0.44835400       0.90817000      -0.00070850
    57  H          0.94405000       0.58240000       0.41241600
    58  H          0.05595000       0.58240000       0.08758400
    59  H          0.44405000       0.08240000       0.41241600
    60  H          0.55595000       0.08240000       0.08758400
    61  H          0.05595000       0.41760000       0.58758400
    62  H          0.94405000       0.41760000       0.91241600
    63  H          0.55595000       0.91760000       0.58758400
    64  H          0.44405000       0.91760000       0.91241600
    65  C          0.88416500       0.37113000       0.36465180
    66  C          0.11583500       0.37113000       0.13534820
    67  C          0.38416500       0.87113000       0.36465180
    68  C          0.61583500       0.87113000       0.13534820
    69  C          0.11583500       0.62887000       0.63534820
    70  C          0.88416500       0.62887000       0.86465180
    71  C          0.61583500       0.12887000       0.63534820
    72  C          0.38416500       0.12887000       0.86465180
    73  H          0.89000000       0.51380000       0.32470000
    74  H          0.11000000       0.51380000       0.17530000
    75  H          0.39000000       0.01380000       0.32470000
    76  H          0.61000000       0.01380000       0.17530000
    77  H          0.11000000       0.48620000       0.67530000
    78  H          0.89000000       0.48620000       0.82470000
    79  H          0.61000000      -0.01380000       0.67530000
    80  H          0.39000000      -0.01380000       0.82470000
    81  C          0.84972500       0.04603000       0.35062000
    82  C          0.15027500       0.04603000       0.14938000
    83  C          0.34972500       0.54603000       0.35062000
    84  C          0.65027500       0.54603000       0.14938000
    85  C          0.15027500       0.95397000       0.64938000
    86  C          0.84972500       0.95397000       0.85062000
    87  C          0.65027500       0.45397000       0.64938000
    88  C          0.34972500       0.45397000       0.85062000
    89  H          0.83100000       0.95520000       0.30040000
    90  H          0.16900000       0.95520000       0.19960000
    91  H          0.33100000       0.45520000       0.30040000
    92  H          0.66900000       0.45520000       0.19960000
    93  H          0.16900000       0.04480000       0.69960000
    94  H          0.83100000       0.04480000       0.80040000
    95  H          0.66900000       0.54480000       0.69960000
    96  H          0.33100000       0.54480000       0.80040000
    97  C          0.86750500       0.96377000       0.47982000
    98  C          0.13249500       0.96377000       0.02018000
    99  C          0.36750500       0.46377000       0.47982000
   100  C          0.63249500       0.46377000       0.02018000
   101  C          0.13249500       0.03623000       0.52018000
   102  C          0.86750500       0.03623000       0.97982000
   103  C          0.63249500       0.53623000       0.52018000
   104  C          0.36750500       0.53623000       0.97982000
   105  H          0.86110000       0.82020000       0.51700000
   106  H          0.13890000       0.82020000       0.98300000
   107  H          0.36110000       0.32020000       0.51700000
   108  H          0.63890000       0.32020000       0.98300000
   109  H          0.13890000       0.17980000       0.48300000
   110  H          0.86110000       0.17980000       0.01700000
   111  H          0.63890000       0.67980000       0.48300000
   112  H          0.36110000       0.67980000       0.01700000
   113  C          0.89475500       0.09533000       0.55350190
   114  C          0.10524500       0.09533000       0.94649810
   115  C          0.39475500       0.59533000       0.55350190
   116  C          0.60524500       0.59533000       0.94649810
   117  C          0.10524500       0.90467000       0.44649810
   118  C          0.89475500       0.90467000       0.05350190
   119  C          0.60524500       0.40467000       0.44649810
   120  C          0.39475500       0.40467000       0.05350190
   121  H          0.90710000       0.04460000       0.64320000
   122  H          0.09290000       0.04460000       0.85680000
   123  H          0.40710000       0.54460000       0.64320000
   124  H          0.59290000       0.54460000       0.85680000
   125  H          0.09290000       0.95540000       0.35680000
   126  H          0.90710000       0.95540000       0.14320000
   127  H          0.59290000       0.45540000       0.35680000
   128  H          0.40710000       0.45540000       0.14320000
   129  C          0.90381400       0.30223000       0.49485180
   130  C          0.09618600       0.30223000       0.00514820
   131  C          0.40381400       0.80223000       0.49485180
   132  C          0.59618600       0.80223000       0.00514820
   133  C          0.09618600       0.69777000       0.50514820
   134  C          0.90381400       0.69777000      -0.00514820
   135  C          0.59618600       0.19777000       0.50514820
   136  C          0.40381400       0.19777000      -0.00514820
   137  C          0.93311500       0.44613000       0.57395180
   138  C          0.06688500       0.44613000       0.92604820
   139  C          0.43311500       0.94613000       0.57395180
   140  C          0.56688500       0.94613000       0.92604820
   141  C          0.06688500       0.55387000       0.42604820
   142  C          0.93311500       0.55387000       0.07395180
   143  C          0.56688500       0.05387000       0.42604820
   144  C          0.43311500       0.05387000       0.07395180
   145  C          0.97620500       0.74563000       0.56848180
   146  C          0.02379500       0.74563000       0.93151820
   147  C          0.47620500       0.24563000       0.56848180
   148  C          0.52379500       0.24563000       0.93151820
   149  C          0.02379500       0.25437000       0.43151820
   150  C          0.97620500       0.25437000       0.06848180
   151  C          0.52379500       0.75437000       0.43151820
   152  C          0.47620500       0.75437000       0.06848180
   153  H         -0.00360000       0.64890000       0.61170000
   154  H          0.00360000       0.64890000       0.88830000
   155  H          0.49640000       0.14890000       0.61170000
   156  H          0.50360000       0.14890000       0.88830000
   157  H          0.00360000       0.35110000       0.38830000
   158  H         -0.00360000       0.35110000       0.11170000
   159  H          0.50360000       0.85110000       0.38830000
   160  H          0.49640000       0.85110000       0.11170000
   161  H          0.96910000       0.83510000       0.64400000
   162  H          0.03090000       0.83510000       0.85600000
   163  H          0.46910000       0.33510000       0.64400000
   164  H          0.53090000       0.33510000       0.85600000
   165  H          0.03090000       0.16490000       0.35600000
   166  H          0.96910000       0.16490000       0.14400000
   167  H          0.53090000       0.66490000       0.35600000
   168  H          0.46910000       0.66490000       0.14400000
   169  C          0.98581500       0.91673000       0.46391180
   170  C          0.01418500       0.91673000       0.03608820
   171  C          0.48581500       0.41673000       0.46391180
   172  C          0.51418500       0.41673000       0.03608820
   173  C          0.01418500       0.08327000       0.53608820
   174  C          0.98581500       0.08327000       0.96391180
   175  C          0.51418500       0.58327000       0.53608820
   176  C          0.48581500       0.58327000       0.96391180
   177  H          0.96540000       0.00960000       0.41860000
   178  H          0.03460000       0.00960000       0.08140000
   179  H          0.46540000       0.50960000       0.41860000
   180  H          0.53460000       0.50960000       0.08140000
   181  H          0.03460000      -0.00960000       0.58140000
   182  H          0.96540000      -0.00960000       0.91860000
   183  H          0.53460000       0.49040000       0.58140000
   184  H          0.46540000       0.49040000       0.91860000
   185  H          0.99360000       0.82700000       0.39000000
   186  H          0.00640000       0.82700000       0.11000000
   187  H          0.49360000       0.32700000       0.39000000
   188  H          0.50640000       0.32700000       0.11000000
   189  H          0.00640000       0.17300000       0.61000000
   190  H          0.99360000       0.17300000       0.89000000
   191  H          0.50640000       0.67300000       0.61000000
   192  H          0.49360000       0.67300000       0.89000000
