data_BOMVAC
_symmetry_space_group_name_H-M    'P1'
_symmetry_Int_Tables_number       1
loop_
_symmetry_equiv_pos_site_id
_symmetry_equiv_pos_as_xyz
1 x,y,z
_cell_length_a                   5.05937
_cell_length_b                   5.07747
_cell_length_c                   22.2293
_cell_angle_alpha                94.5135
_cell_angle_beta                 91.9864
_cell_angle_gamma                91.5224
loop_
_atom_site_label
_atom_site_type_symbol
_atom_site_fract_x
_atom_site_fract_y
_atom_site_fract_z
     1  N          0.06515000       0.46295000       0.29838110
     2  N          0.93485000       0.53705000       0.70161890
     3  C          0.20415000       0.39315000       0.25005110
     4  C          0.79585000       0.60685000       0.74994890
     5  H          0.34710000       0.50580000       0.24060000
     6  H          0.65290000       0.49420000       0.75940000
     7  C          0.15004000       0.16344000       0.21271100
     8  C          0.84996000       0.83656000       0.78728900
     9  C          0.94115000      -0.00155000       0.22667120
    10  C          0.05885000       0.00155000       0.77332880
    11  H          0.90040000       0.83860000       0.20260000
    12  H          0.09960000       0.16140000       0.79740000
    13  C          0.79375000       0.07126000       0.27618120
    14  C          0.20625000       0.92874000       0.72381880
    15  H          0.64750000       0.96440000       0.28630000
    16  H          0.35250000       0.03560000       0.71370000
    17  C          0.86354000       0.30186000       0.31045120
    18  C          0.13646000       0.69814000       0.68954880
    19  H          0.76280000       0.34930000       0.34470000
    20  H          0.23720000       0.65070000       0.65530000
    21  C          0.31904000       0.07784000       0.16091100
    22  C          0.68096000       0.92216000       0.83908900
    23  N          0.44554000       0.27014000       0.13409900
    24  N          0.55446000       0.72986000       0.86590100
    25  H          0.42130000       0.43690000       0.14590000
    26  H          0.57870000       0.56310000       0.85410000
    27  O          0.34094000       0.84197000       0.14469900
    28  O          0.65906000       0.15803000       0.85530100
    29  C          0.62275000       0.20204000       0.08537110
    30  C          0.37725000       0.79796000       0.91462890
    31  H          0.52040000       0.10890000       0.05090000
    32  H          0.47960000       0.89110000       0.94910000
    33  H          0.75750000       0.08060000       0.09950000
    34  H          0.24250000       0.91940000       0.90050000
    35  C          0.75945000       0.44634000       0.06463110
    36  C          0.24055000       0.55366000       0.93536890
    37  H          0.86870000       0.53430000       0.09860000
    38  H          0.13130000       0.46570000       0.90140000
    39  H          0.62440000       0.57160000       0.05260000
    40  H          0.37560000       0.42840000       0.94740000
    41  C          0.93435000       0.37864000       0.01166110
    42  C          0.06565000       0.62136000       0.98833890
    43  H          0.07300000       0.25840000       0.02430000
    44  H          0.92700000       0.74160000       0.97570000
    45  H          0.82590000       0.28370000       0.97850000
    46  H          0.17410000       0.71630000       0.02150000
    47  C          0.45206000       0.07435000       0.47341120
    48  C          0.54794000       0.92565000       0.52658880
    49  I          0.28525300       0.81898300       0.39890770
    50  I          0.71474700       0.18101700       0.60109230
    51  F          0.65644000       0.21674000       0.45467800
    52  F          0.34356000       0.78326000       0.54532200
    53  F          0.26764000       0.24354000       0.49308900
    54  F          0.73236000       0.75646000       0.50691100
