data_BOMWUX
_symmetry_space_group_name_H-M    'P1'
_symmetry_Int_Tables_number       1
loop_
_symmetry_equiv_pos_site_id
_symmetry_equiv_pos_as_xyz
1 x,y,z
_cell_length_a                   15.189418
_cell_length_b                   9.394711
_cell_length_c                   9.866811
_cell_angle_alpha                90.0
_cell_angle_beta                 95.1694
_cell_angle_gamma                90.0
loop_
_atom_site_label
_atom_site_type_symbol
_atom_site_fract_x
_atom_site_fract_y
_atom_site_fract_z
     1  N          0.29705190       0.47033000       0.85923000
     2  N          0.70294810       0.97033000       0.64077000
     3  N          0.70294810       0.52967000       0.14077000
     4  N          0.29705190       0.02967000       0.35923000
     5  C          0.34679180       0.58503000       0.89253000
     6  C          0.65320820       0.08503000       0.60747000
     7  C          0.65320820       0.41497000       0.10747000
     8  C          0.34679180       0.91497000       0.39253000
     9  H          0.34770000       0.66030000       0.82850000
    10  H          0.65230000       0.16030000       0.67150000
    11  H          0.65230000       0.33970000       0.17150000
    12  H          0.34770000       0.83970000       0.32850000
    13  C          0.39712160       0.59853000       0.01692000
    14  C          0.60287840       0.09853000       0.48308000
    15  C          0.60287840       0.40147000       0.98308000
    16  C          0.39712160       0.90147000       0.51692000
    17  C          0.39552000       0.48733000       0.10973000
    18  C          0.60448000      -0.01267000       0.39027000
    19  C          0.60448000       0.51267000       0.89027000
    20  C          0.39552000       0.01267000       0.60973000
    21  H          0.42910000       0.49270000       0.19560000
    22  H          0.57090000      -0.00730000       0.30440000
    23  H          0.57090000       0.50730000       0.80440000
    24  H          0.42910000       0.00730000       0.69560000
    25  C          0.34432000       0.36863000       0.07533000
    26  C          0.65568000       0.86863000       0.42467000
    27  C          0.65568000       0.63137000       0.92467000
    28  C          0.34432000       0.13137000       0.57533000
    29  H          0.34220000       0.29130000       0.13700000
    30  H          0.65780000       0.79130000       0.36300000
    31  H          0.65780000       0.70870000       0.86300000
    32  H          0.34220000       0.20870000       0.63700000
    33  C          0.29642000       0.36473000       0.94993000
    34  C          0.70358000       0.86473000       0.55007000
    35  C          0.70358000       0.63527000       0.05007000
    36  C          0.29642000       0.13527000       0.44993000
    37  H          0.26120000       0.28310000       0.92680000
    38  H          0.73880000       0.78310000       0.57320000
    39  H          0.73880000       0.71690000       0.07320000
    40  H          0.26120000       0.21690000       0.42680000
    41  C          0.45075160       0.72792000       0.05492000
    42  C          0.54924840       0.22792000       0.44508000
    43  C          0.54924840       0.27208000       0.94508000
    44  C          0.45075160       0.77208000       0.55492000
    45  N          0.47216140       0.81112000       0.95335190
    46  N          0.52783860       0.31112000       0.54664810
    47  N          0.52783860       0.18888000       0.04664810
    48  N          0.47216140       0.68888000       0.45335190
    49  H          0.46120000       0.78840000       0.87240000
    50  H          0.53880000       0.28840000       0.62760000
    51  H          0.53880000       0.21160000       0.12760000
    52  H          0.46120000       0.71160000       0.37240000
    53  O          0.47483140       0.75532000       0.17530180
    54  O          0.52516860       0.25532000       0.32469820
    55  O          0.52516860       0.24468000       0.82469820
    56  O          0.47483140       0.74468000       0.67530180
    57  C          0.52711170       0.93643000       0.97942000
    58  C          0.47288830       0.43643000       0.52058000
    59  C          0.47288830       0.06357000       0.02058000
    60  C          0.52711170       0.56357000       0.47942000
    61  H          0.55600000       0.96070000       0.89640000
    62  H          0.44400000       0.46070000       0.60360000
    63  H          0.44400000       0.03930000       0.10360000
    64  H          0.55600000       0.53930000       0.39640000
    65  H          0.57400000       0.91530000       0.05290000
    66  H          0.42600000       0.41530000       0.44710000
    67  H          0.42600000       0.08470000       0.94710000
    68  H          0.57400000       0.58470000       0.55290000
    69  C          0.19026180       0.57883000       0.37963000
    70  C          0.80973820       0.07883000       0.12037000
    71  C          0.80973820       0.42117000       0.62037000
    72  C          0.19026180       0.92117000       0.87963000
    73  I          0.21721012       0.51564200       0.58827616
    74  I          0.78278988       0.01564200       0.91172384
    75  I          0.78278988       0.48435800       0.41172384
    76  I          0.21721012       0.98435800       0.08827616
    77  F          0.26206140       0.55134000       0.31472000
    78  F          0.73793860       0.05134000       0.18528000
    79  F          0.73793860       0.44866000       0.68528000
    80  F          0.26206140       0.94866000       0.81472000
    81  F          0.17699170       0.71962000       0.37212000
    82  F          0.82300830       0.21962000       0.12788000
    83  F          0.82300830       0.28038000       0.62788000
    84  F          0.17699170       0.78038000       0.87212000
    85  C          0.11002000       0.50423000       0.30303000
    86  C          0.88998000       0.00423000       0.19697000
    87  C          0.88998000       0.49577000       0.69697000
    88  C          0.11002000      -0.00423000       0.80303000
    89  F          0.12852000       0.36572000       0.29772000
    90  F          0.87148000       0.86572000       0.20228000
    91  F          0.87148000       0.63428000       0.70228000
    92  F          0.12852000       0.13428000       0.79772000
    93  F          0.04081160       0.52273000       0.37512000
    94  F          0.95918840       0.02273000       0.12488000
    95  F          0.95918840       0.47727000       0.62488000
    96  F          0.04081160       0.97727000       0.87512000
    97  C          0.08432180       0.56023000       0.15713000
    98  C          0.91567820       0.06023000       0.34287000
    99  C          0.91567820       0.43977000       0.84287000
   100  C          0.08432180       0.93977000       0.65713000
   101  F          0.15698150       0.57234000       0.09232000
   102  F          0.84301850       0.07234000       0.40768000
   103  F          0.84301850       0.42766000       0.90768000
   104  F          0.15698150       0.92766000       0.59232000
   105  F          0.05054180       0.69042000       0.16712000
   106  F          0.94945820       0.19042000       0.33288000
   107  F          0.94945820       0.30958000       0.83288000
   108  F          0.05054180       0.80958000       0.66712000
   109  C          0.01702000       0.46763000       0.06973000
   110  C          0.98298000       0.96763000       0.43027000
   111  C          0.98298000       0.53237000       0.93027000
   112  C          0.01702000       0.03237000       0.56973000
   113  F          0.05712000       0.34513000       0.04693000
   114  F          0.94288000       0.84513000       0.45307000
   115  F          0.94288000       0.65487000       0.95307000
   116  F          0.05712000       0.15487000       0.54693000
   117  F          0.94900810       0.44184000       0.13922000
   118  F          0.05099190       0.94184000       0.36078000
   119  F          0.05099190       0.55816000       0.86078000
   120  F          0.94900810       0.05816000       0.63922000
