data_BOMWAD
_symmetry_space_group_name_H-M    'P1'
_symmetry_Int_Tables_number       1
loop_
_symmetry_equiv_pos_site_id
_symmetry_equiv_pos_as_xyz
1 x,y,z
_cell_length_a                   49.9533
_cell_length_b                   5.57073
_cell_length_c                   9.72576
_cell_angle_alpha                90.0
_cell_angle_beta                 95.2342
_cell_angle_gamma                90.0
loop_
_atom_site_label
_atom_site_type_symbol
_atom_site_fract_x
_atom_site_fract_y
_atom_site_fract_z
     1  I          0.15621320       0.52771819       0.29138210
     2  I          0.84378680       0.52771819       0.20861790
     3  I          0.65621320       0.02771819       0.29138210
     4  I          0.34378680       0.02771819       0.20861790
     5  I          0.84378680       0.47228181       0.70861790
     6  I          0.15621320       0.47228181       0.79138210
     7  I          0.34378680       0.97228181       0.70861790
     8  I          0.65621320       0.97228181       0.79138210
     9  C          0.18641300       0.77163000       0.38021180
    10  C          0.81358700       0.77163000       0.11978820
    11  C          0.68641300       0.27163000       0.38021180
    12  C          0.31358700       0.27163000       0.11978820
    13  C          0.81358700       0.22837000       0.61978820
    14  C          0.18641300       0.22837000       0.88021180
    15  C          0.31358700       0.72837000       0.61978820
    16  C          0.68641300       0.72837000       0.88021180
    17  F          0.17824200       0.87523000       0.49190150
    18  F          0.82175800       0.87523000       0.00809850
    19  F          0.67824200       0.37523000       0.49190150
    20  F          0.32175800       0.37523000       0.00809850
    21  F          0.82175800       0.12477000       0.50809850
    22  F          0.17824200       0.12477000      -0.00809850
    23  F          0.32175800       0.62477000       0.50809850
    24  F          0.67824200       0.62477000      -0.00809850
    25  F          0.18964300       0.94442000       0.28749180
    26  F          0.81035700       0.94442000       0.21250820
    27  F          0.68964300       0.44442000       0.28749180
    28  F          0.31035700       0.44442000       0.21250820
    29  F          0.81035700       0.05558000       0.71250820
    30  F          0.18964300       0.05558000       0.78749180
    31  F          0.31035700       0.55558000       0.71250820
    32  F          0.68964300       0.55558000       0.78749180
    33  C          0.21360300       0.64623000       0.41778150
    34  C          0.78639700       0.64623000       0.08221850
    35  C          0.71360300       0.14623000       0.41778150
    36  C          0.28639700       0.14623000       0.08221850
    37  C          0.78639700       0.35377000       0.58221850
    38  C          0.21360300       0.35377000       0.91778150
    39  C          0.28639700       0.85377000       0.58221850
    40  C          0.71360300       0.85377000       0.91778150
    41  F          0.20940300       0.46642000       0.50449150
    42  F          0.79059700       0.46642000      -0.00449150
    43  F          0.70940300       0.96642000       0.50449150
    44  F          0.29059700       0.96642000      -0.00449150
    45  F          0.79059700       0.53358000       0.49550850
    46  F          0.20940300       0.53358000       0.00449150
    47  F          0.29059700       0.03358000       0.49550850
    48  F          0.70940300       0.03358000       0.00449150
    49  F          0.22161200       0.55373000       0.30226130
    50  F          0.77838800       0.55373000       0.19773870
    51  F          0.72161200       0.05373000       0.30226130
    52  F          0.27838800       0.05373000       0.19773870
    53  F          0.77838800       0.44627000       0.69773870
    54  F          0.22161200       0.44627000       0.80226130
    55  F          0.27838800       0.94627000       0.69773870
    56  F          0.72161200       0.94627000       0.80226130
    57  C          0.23606300       0.81113000       0.48644150
    58  C          0.76393700       0.81113000       0.01355850
    59  C          0.73606300       0.31113000       0.48644150
    60  C          0.26393700       0.31113000       0.01355850
    61  C          0.76393700       0.18887000       0.51355850
    62  C          0.23606300       0.18887000      -0.01355850
    63  C          0.26393700       0.68887000       0.51355850
    64  C          0.73606300       0.68887000      -0.01355850
    65  F          0.22827200       0.88483000       0.60744110
    66  F          0.77172800       0.88483000       0.89255890
    67  F          0.72827200       0.38483000       0.60744110
    68  F          0.27172800       0.38483000       0.89255890
    69  F          0.77172800       0.11517000       0.39255890
    70  F          0.22827200       0.11517000       0.10744110
    71  F          0.27172800       0.61517000       0.39255890
    72  F          0.72827200       0.61517000       0.10744110
    73  F          0.23864200       0.00232000       0.40623150
    74  F          0.76135800       0.00232000       0.09376850
    75  F          0.73864200       0.50232000       0.40623150
    76  F          0.26135800       0.50232000       0.09376850
    77  F          0.76135800      -0.00232000       0.59376850
    78  F          0.23864200      -0.00232000       0.90623150
    79  F          0.26135800       0.49768000       0.59376850
    80  F          0.73864200       0.49768000       0.90623150
    81  N          0.11302300       0.25353000       0.12841140
    82  N          0.88697700       0.25353000       0.37158860
    83  N          0.61302300       0.75353000       0.12841140
    84  N          0.38697700       0.75353000       0.37158860
    85  N          0.88697700       0.74647000       0.87158860
    86  N          0.11302300       0.74647000       0.62841140
    87  N          0.38697700       0.24647000       0.87158860
    88  N          0.61302300       0.24647000       0.62841140
    89  C          0.09183300       0.37553000       0.07231150
    90  C          0.90816700       0.37553000       0.42768850
    91  C          0.59183300       0.87553000       0.07231150
    92  C          0.40816700       0.87553000       0.42768850
    93  C          0.90816700       0.62447000       0.92768850
    94  C          0.09183300       0.62447000       0.57231150
    95  C          0.40816700       0.12447000       0.92768850
    96  C          0.59183300       0.12447000       0.57231150
    97  H          0.08700000       0.51960000       0.11600000
    98  H          0.91300000       0.51960000       0.38400000
    99  H          0.58700000       0.01960000       0.11600000
   100  H          0.41300000       0.01960000       0.38400000
   101  H          0.91300000       0.48040000       0.88400000
   102  H          0.08700000       0.48040000       0.61600000
   103  H          0.41300000      -0.01960000       0.88400000
   104  H          0.58700000      -0.01960000       0.61600000
   105  C          0.07642300       0.30293000       0.95295860
   106  C          0.92357700       0.30293000       0.54704140
   107  C          0.57642300       0.80293000       0.95295860
   108  C          0.42357700       0.80293000       0.54704140
   109  C          0.92357700       0.69707000       0.04704140
   110  C          0.07642300       0.69707000       0.45295860
   111  C          0.42357700       0.19707000       0.04704140
   112  C          0.57642300       0.19707000       0.45295860
   113  C          0.08394300       0.09423000       0.88819830
   114  C          0.91605700       0.09423000       0.61180170
   115  C          0.58394300       0.59423000       0.88819830
   116  C          0.41605700       0.59423000       0.61180170
   117  C          0.91605700       0.90577000       0.11180170
   118  C          0.08394300       0.90577000       0.38819830
   119  C          0.41605700       0.40577000       0.11180170
   120  C          0.58394300       0.40577000       0.38819830
   121  H          0.07420000       0.04050000       0.80550000
   122  H          0.92580000       0.04050000       0.69450000
   123  H          0.57420000       0.54050000       0.80550000
   124  H          0.42580000       0.54050000       0.69450000
   125  H          0.92580000       0.95950000       0.19450000
   126  H          0.07420000       0.95950000       0.30550000
   127  H          0.42580000       0.45950000       0.19450000
   128  H          0.57420000       0.45950000       0.30550000
   129  C          0.10582400       0.96607000       0.94608000
   130  C          0.89417600       0.96607000       0.55392000
   131  C          0.60582400       0.46607000       0.94608000
   132  C          0.39417600       0.46607000       0.55392000
   133  C          0.89417600       0.03393000       0.05392000
   134  C          0.10582400       0.03393000       0.44608000
   135  C          0.39417600       0.53393000       0.05392000
   136  C          0.60582400       0.53393000       0.44608000
   137  H          0.11130000       0.82190000       0.90460000
   138  H          0.88870000       0.82190000       0.59540000
   139  H          0.61130000       0.32190000       0.90460000
   140  H          0.38870000       0.32190000       0.59540000
   141  H          0.88870000       0.17810000       0.09540000
   142  H          0.11130000       0.17810000       0.40460000
   143  H          0.38870000       0.67810000       0.09540000
   144  H          0.61130000       0.67810000       0.40460000
   145  C          0.11965300       0.05203000       0.06588190
   146  C          0.88034700       0.05203000       0.43411810
   147  C          0.61965300       0.55203000       0.06588190
   148  C          0.38034700       0.55203000       0.43411810
   149  C          0.88034700       0.94797000       0.93411810
   150  C          0.11965300       0.94797000       0.56588190
   151  C          0.38034700       0.44797000       0.93411810
   152  C          0.61965300       0.44797000       0.56588190
   153  H          0.13460000       0.96280000       0.10550000
   154  H          0.86540000       0.96280000       0.39450000
   155  H          0.63460000       0.46280000       0.10550000
   156  H          0.36540000       0.46280000       0.39450000
   157  H          0.86540000       0.03720000       0.89450000
   158  H          0.13460000       0.03720000       0.60550000
   159  H          0.36540000       0.53720000       0.89450000
   160  H          0.63460000       0.53720000       0.60550000
   161  C          0.05321300       0.44443000       0.88984850
   162  C          0.94678700       0.44443000       0.61015150
   163  C          0.55321300       0.94443000       0.88984850
   164  C          0.44678700       0.94443000       0.61015150
   165  C          0.94678700       0.55557000       0.11015150
   166  C          0.05321300       0.55557000       0.38984850
   167  C          0.44678700       0.05557000       0.11015150
   168  C          0.55321300       0.05557000       0.38984850
   169  N          0.04104300       0.59132000       0.97296880
   170  N          0.95895700       0.59132000       0.52703120
   171  N          0.54104300       0.09132000       0.97296880
   172  N          0.45895700       0.09132000       0.52703120
   173  N          0.95895700       0.40868000       0.02703120
   174  N          0.04104300       0.40868000       0.47296880
   175  N          0.45895700       0.90868000       0.02703120
   176  N          0.54104300       0.90868000       0.47296880
   177  H          0.04640000       0.59530000       0.06170000
   178  H          0.95360000       0.59530000       0.43830000
   179  H          0.54640000       0.09530000       0.06170000
   180  H          0.45360000       0.09530000       0.43830000
   181  H          0.95360000       0.40470000       0.93830000
   182  H          0.04640000       0.40470000       0.56170000
   183  H          0.45360000       0.90470000       0.93830000
   184  H          0.54640000       0.90470000       0.56170000
   185  O          0.04566200       0.42583000       0.76585890
   186  O          0.95433800       0.42583000       0.73414110
   187  O          0.54566200       0.92583000       0.76585890
   188  O          0.45433800       0.92583000       0.73414110
   189  O          0.95433800       0.57417000       0.23414110
   190  O          0.04566200       0.57417000       0.26585890
   191  O          0.45433800       0.07417000       0.23414110
   192  O          0.54566200       0.07417000       0.26585890
   193  C          0.01908300       0.74463000       0.91838860
   194  C          0.98091700       0.74463000       0.58161140
   195  C          0.51908300       0.24463000       0.91838860
   196  C          0.48091700       0.24463000       0.58161140
   197  C          0.98091700       0.25537000       0.08161140
   198  C          0.01908300       0.25537000       0.41838860
   199  C          0.48091700       0.75537000       0.08161140
   200  C          0.51908300       0.75537000       0.41838860
   201  H          0.00340000       0.64450000       0.88600000
   202  H          0.99660000       0.64450000       0.61400000
   203  H          0.50340000       0.14450000       0.88600000
   204  H          0.49660000       0.14450000       0.61400000
   205  H          0.99660000       0.35550000       0.11400000
   206  H          0.00340000       0.35550000       0.38600000
   207  H          0.49660000       0.85550000       0.11400000
   208  H          0.50340000       0.85550000       0.38600000
   209  H          0.02460000       0.83640000       0.83850000
   210  H          0.97540000       0.83640000       0.66150000
   211  H          0.52460000       0.33640000       0.83850000
   212  H          0.47540000       0.33640000       0.66150000
   213  H          0.97540000       0.16360000       0.16150000
   214  H          0.02460000       0.16360000       0.33850000
   215  H          0.47540000       0.66360000       0.16150000
   216  H          0.52460000       0.66360000       0.33850000
   217  C          0.01128300       0.91723000       0.02848150
   218  C          0.98871700       0.91723000       0.47151850
   219  C          0.51128300       0.41723000       0.02848150
   220  C          0.48871700       0.41723000       0.47151850
   221  C          0.98871700       0.08277000       0.97151850
   222  C          0.01128300       0.08277000       0.52848150
   223  C          0.48871700       0.58277000       0.97151850
   224  C          0.51128300       0.58277000       0.52848150
   225  H          0.02710000       0.01430000       0.06250000
   226  H          0.97290000       0.01430000       0.43750000
   227  H          0.52710000       0.51430000       0.06250000
   228  H          0.47290000       0.51430000       0.43750000
   229  H          0.97290000      -0.01430000       0.93750000
   230  H          0.02710000      -0.01430000       0.56250000
   231  H          0.47290000       0.48570000       0.93750000
   232  H          0.52710000       0.48570000       0.56250000
   233  H          0.00540000       0.82520000       0.10740000
   234  H          0.99460000       0.82520000       0.39260000
   235  H          0.50540000       0.32520000       0.10740000
   236  H          0.49460000       0.32520000       0.39260000
   237  H          0.99460000       0.17480000       0.89260000
   238  H          0.00540000       0.17480000       0.60740000
   239  H          0.49460000       0.67480000       0.89260000
   240  H          0.50540000       0.67480000       0.60740000
