data_BONGIW
_symmetry_space_group_name_H-M    'P1'
_symmetry_Int_Tables_number       1
loop_
_symmetry_equiv_pos_site_id
_symmetry_equiv_pos_as_xyz
1 x,y,z
_cell_length_a                   12.33204
_cell_length_b                   9.99033
_cell_length_c                   5.8021816
_cell_angle_alpha                90.0
_cell_angle_beta                 90.0
_cell_angle_gamma                90.0
loop_
_atom_site_label
_atom_site_type_symbol
_atom_site_fract_x
_atom_site_fract_y
_atom_site_fract_z
     1  N          0.26184800      -0.00013900       0.35131170
     2  N          0.73815200       0.00013900       0.35131170
     3  N          0.76184800       0.50013900       0.64868830
     4  N          0.23815200       0.49986100       0.64868830
     5  O          0.04981800       0.74518890       0.37822000
     6  O          0.95018200       0.25481110       0.37822000
     7  O          0.54981800       0.75481110       0.62178000
     8  O          0.45018200       0.24518890       0.62178000
     9  O          0.10539800       0.89373890       0.63953180
    10  O          0.89460200       0.10626110       0.63953180
    11  O          0.60539800       0.60626110       0.36046820
    12  O          0.39460200       0.39373890       0.36046820
    13  C          0.18028100       0.90175870       0.25842000
    14  C          0.81971900       0.09824130       0.25842000
    15  C          0.68028100       0.59824130       0.74158000
    16  C          0.31971900       0.40175870       0.74158000
    17  H          0.21870000       0.82970000       0.18190000
    18  H          0.78130000       0.17030000       0.18190000
    19  H          0.71870000       0.67030000       0.81810000
    20  H          0.28130000       0.32970000       0.81810000
    21  H          0.13610000       0.94660000       0.14360000
    22  H          0.86390000       0.05340000       0.14360000
    23  H          0.63610000       0.55340000       0.85640000
    24  H          0.36390000       0.44660000       0.85640000
    25  C          0.34491110       0.93328860       0.49872000
    26  C          0.65508890       0.06671140       0.49872000
    27  C          0.84491110       0.56671140       0.50128000
    28  C          0.15508890       0.43328860       0.50128000
    29  H          0.39270000      -0.00040000       0.56210000
    30  H          0.60730000       0.00040000       0.56210000
    31  H          0.89270000       0.50040000       0.43790000
    32  H          0.10730000       0.49960000       0.43790000
    33  H          0.38600000       0.87130000       0.40720000
    34  H          0.61400000       0.12870000       0.40720000
    35  H          0.88600000       0.62870000       0.59280000
    36  H          0.11400000       0.37130000       0.59280000
    37  H          0.30960000       0.88600000       0.62160000
    38  H          0.69040000       0.11400000       0.62160000
    39  H          0.80960000       0.61400000       0.37840000
    40  H          0.19040000       0.38600000       0.37840000
    41  C          0.31460120       0.07298140       0.15772000
    42  C          0.68539880       0.92701860       0.15772000
    43  C          0.81460120       0.42701860       0.84228000
    44  C          0.18539880       0.57298140       0.84228000
    45  H          0.35110000       0.01020000       0.05920000
    46  H          0.64890000      -0.01020000       0.05920000
    47  H          0.85110000       0.48980000       0.94080000
    48  H          0.14890000       0.51020000       0.94080000
    49  H          0.36620000       0.13570000       0.21830000
    50  H          0.63380000       0.86430000       0.21830000
    51  H          0.86620000       0.36430000       0.78170000
    52  H          0.13380000       0.63570000       0.78170000
    53  H          0.26050000       0.12010000       0.07070000
    54  H          0.73950000       0.87990000       0.07070000
    55  H          0.76050000       0.37990000       0.92930000
    56  H          0.23950000       0.62010000       0.92930000
    57  C          0.10543100       0.84144870       0.44202000
    58  C          0.89456900       0.15855130       0.44202000
    59  C          0.60543100       0.65855130       0.55798000
    60  C          0.39456900       0.34144870       0.55798000
    61  O          0.20847800       0.10077900       0.48186190
    62  O          0.79152200       0.89922100       0.48186190
    63  O          0.70847800       0.39922100       0.51813810
    64  O          0.29152200       0.60077900       0.51813810
    65  H          0.16531500       0.05411800       0.57230000
    66  H          0.83468500       0.94588200       0.57230000
    67  H          0.66531500       0.44588200       0.42770000
    68  H          0.33468500       0.55411800       0.42770000
    69  O          0.92867100       0.85484880       0.90770180
    70  O          0.07132900       0.14515120       0.90770180
    71  O          0.42867100       0.64515120       0.09229820
    72  O          0.57132900       0.35484880       0.09229820
    73  H          0.98788400       0.85880000       0.82230000
    74  H          0.01211600       0.14120000       0.82230000
    75  H          0.48788400       0.64120000       0.17770000
    76  H          0.51211600       0.35880000       0.17770000
    77  O          0.93453900       0.71849890      -0.01078000
    78  O          0.06546100       0.28150110      -0.01078000
    79  O          0.43453900       0.78150110       0.01078000
    80  O          0.56546100       0.21849890       0.01078000
    81  H          0.97938400       0.72680000       0.10440000
    82  H          0.02061600       0.27320000       0.10440000
    83  H          0.47938400       0.77320000       0.89560000
    84  H          0.52061600       0.22680000       0.89560000
