data_BONJOF
_symmetry_space_group_name_H-M    'P1'
_symmetry_Int_Tables_number       1
loop_
_symmetry_equiv_pos_site_id
_symmetry_equiv_pos_as_xyz
1 x,y,z
_cell_length_a                   5.05874
_cell_length_b                   5.09744
_cell_length_c                   24.163519
_cell_angle_alpha                84.8592
_cell_angle_beta                 84.3302
_cell_angle_gamma                88.1942
loop_
_atom_site_label
_atom_site_type_symbol
_atom_site_fract_x
_atom_site_fract_y
_atom_site_fract_z
     1  N          0.01454000       0.39044000       0.18699700
     2  N         -0.01454000       0.60956000       0.81300300
     3  C          0.13994000       0.42354000       0.23199800
     4  C          0.86006000       0.57646000       0.76800200
     5  H          0.27950000       0.30280000       0.24090000
     6  H          0.72050000       0.69720000       0.75910000
     7  C          0.07664000       0.62563000       0.26655700
     8  C          0.92336000       0.37437000       0.73344300
     9  C          0.87036000       0.80034000       0.25360800
    10  C          0.12964000       0.19966000       0.74639200
    11  H          0.82160000       0.94150000       0.27600000
    12  H          0.17840000       0.05850000       0.72400000
    13  C          0.73736000       0.76455000       0.20749900
    14  C          0.26264000       0.23545000       0.79250100
    15  H          0.59430000       0.87960000       0.19800000
    16  H          0.40570000       0.12040000       0.80200000
    17  C          0.81545000       0.55995000       0.17557900
    18  C          0.18455000       0.44005000       0.82442100
    19  H          0.72380000       0.53790000       0.14390000
    20  H          0.27620000       0.46210000       0.85610000
    21  C          0.23144000       0.67013000       0.31420700
    22  C          0.76856000       0.32987000       0.68579300
    23  N          0.35093000       0.45963000       0.33913700
    24  N          0.64907000       0.54037000       0.66086300
    25  H          0.31760000       0.32060000       0.33041200
    26  H          0.68240000       0.67940000       0.66958800
    27  O          0.24853000       0.89383000       0.32929600
    28  O          0.75147000       0.10617000       0.67070400
    29  C          0.51524000       0.48834000       0.38429800
    30  C          0.48476000       0.51166000       0.61570200
    31  H          0.40440000       0.55770000       0.41610000
    32  H          0.59560000       0.44230000       0.58390000
    33  H          0.65560000       0.61690000       0.37140000
    34  H          0.34440000       0.38310000       0.62860000
    35  C          0.64304000       0.22773000       0.40360800
    36  C          0.35696000       0.77227000       0.59639200
    37  H          0.76030000       0.16270000       0.37220000
    38  H          0.23970000       0.83730000       0.62780000
    39  H          0.50270000       0.09680000       0.41460000
    40  H          0.49730000       0.90320000       0.58540000
    41  C          0.80474000       0.25173000       0.45270800
    42  C          0.19526000       0.74827000       0.54729200
    43  H          0.95180000       0.37410000       0.44080000
    44  H          0.04820000       0.62590000       0.55920000
    45  H          0.68990000       0.32840000       0.48300000
    46  H          0.31010000       0.67160000       0.51700000
    47  C          0.91994000      -0.01153000       0.47517800
    48  C          0.08006000       0.01153000       0.52482200
    49  H          0.03610000       0.91280000       0.44490000
    50  H          0.96390000       0.08720000       0.55510000
    51  H          0.77290000       0.86560000       0.48670000
    52  H          0.22710000       0.13440000       0.51330000
    53  C          0.44525000       0.90506000       0.02462800
    54  C          0.55475000       0.09494000       0.97537200
    55  I          0.26011300       0.10736300       0.09368750
    56  I          0.73988700       0.89263700       0.90631250
    57  F          0.64603000       0.74997000       0.04175600
    58  F          0.35397000       0.25003000       0.95824400
    59  F          0.26543000       0.75267000       0.00657600
    60  F          0.73457000       0.24733000       0.99342400
