data_BOPHIB
_symmetry_space_group_name_H-M    'P1'
_symmetry_Int_Tables_number       1
loop_
_symmetry_equiv_pos_site_id
_symmetry_equiv_pos_as_xyz
1 x,y,z
_cell_length_a                   7.21432
_cell_length_b                   10.49482
_cell_length_c                   11.08032
_cell_angle_alpha                78.84001
_cell_angle_beta                 80.15101
_cell_angle_gamma                71.73901
loop_
_atom_site_label
_atom_site_type_symbol
_atom_site_fract_x
_atom_site_fract_y
_atom_site_fract_z
     1  Cl         0.67019600       0.30047400       0.48477400
     2  Cl         0.32980400       0.69952600       0.51522600
     3  O          0.81742000       0.55549140       0.12933140
     4  O          0.18258000       0.44450860       0.87066860
     5  H          0.77889100       0.63939000       0.13150200
     6  H          0.22110900       0.36061000       0.86849800
     7  O          0.98022000       0.84072860       0.32891140
     8  O          0.01978000       0.15927140       0.67108860
     9  O          0.68403000       0.54671150       0.32492150
    10  O          0.31597000       0.45328850       0.67507850
    11  O          0.14522000       0.87085840       0.14863160
    12  O          0.85478000       0.12914160       0.85136840
    13  N          0.03852000       0.91356840       0.23963170
    14  N          0.96148000       0.08643160       0.76036830
    15  C          0.86843000       0.10875190       0.34700180
    16  C          0.13157000       0.89124810       0.65299820
    17  H          0.84077700       0.04735400       0.41786900
    18  H          0.15922300       0.95264600       0.58213100
    19  C          0.02143000       0.14632190       0.13561180
    20  C          0.97857000       0.85367810       0.86438820
    21  H          0.09715900       0.11108900       0.06407000
    22  H          0.90284100       0.88891100       0.93593000
    23  C          0.80353000       0.24769190       0.34863180
    24  C          0.19647000       0.75230810       0.65136820
    25  C          0.95403000       0.28459190       0.13915180
    26  C          0.04597000       0.71540810       0.86084820
    27  H          0.98382900       0.34481600       0.06794600
    28  H          0.01617100       0.65518400       0.93205400
    29  C          0.97393000       0.06161180       0.24040190
    30  C          0.02607000       0.93838820       0.75959810
    31  C          0.77243000       0.48990190       0.23964170
    32  C          0.22757000       0.51009810       0.76035830
    33  C          0.84403000       0.33862180       0.24325180
    34  C          0.15597000       0.66137820       0.75674820
    35  O          0.69942000       0.81501130       0.12419130
    36  O          0.30058000       0.18498870       0.87580870
    37  N          0.27952000       0.41386160       0.26352160
    38  N          0.72048000       0.58613840       0.73647840
    39  C          0.53893000       0.10479190       0.12643180
    40  C          0.46107000       0.89520810       0.87356820
    41  H          0.60629400       0.07991900       0.04913300
    42  H          0.39370600       0.92008100       0.95086700
    43  C          0.35943000       0.28047190       0.25246180
    44  C          0.64057000       0.71952810       0.74753820
    45  C          0.42253000       0.04276190       0.34024180
    46  C          0.57747000       0.95723810       0.65975820
    47  H          0.40999200       0.97501400       0.40910600
    48  H          0.59000800       0.02498600       0.59089400
    49  C          0.46043000       0.23944190       0.13834180
    50  C          0.53957000       0.76055810       0.86165820
    51  H          0.47378700       0.30643900       0.06897500
    52  H          0.52621300       0.69356100       0.93102500
    53  C          0.60313000       0.86115190       0.21812180
    54  C          0.39687000       0.13884810       0.78187820
    55  H          0.58200600       0.79809000       0.28925300
    56  H          0.41799400       0.20191000       0.71074700
    57  C          0.52123000       0.00302190       0.22715180
    58  C          0.47877000      -0.00302190       0.77284820
    59  C          0.34323000       0.17716190       0.35425180
    60  C          0.65677000       0.82283810       0.64574820
    61  H          0.27746000       0.20109700       0.43215600
    62  H          0.72254000       0.79890300       0.56784400
    63  C          0.17583000       0.45632000       0.38062000
    64  C          0.82417000       0.54368000       0.61938000
    65  H          0.07419900       0.41010400       0.41057400
    66  H          0.92580100       0.58989600       0.58942600
    67  H          0.11445400       0.55469100       0.36819700
    68  H          0.88554600       0.44530900       0.63180300
    69  H          0.26919700       0.43268700       0.44172800
    70  H          0.73080300       0.56731300       0.55827200
    71  C          0.29923000       0.51872000       0.15872000
    72  C          0.70077000       0.48128000       0.84128000
    73  H          0.43891500       0.50840700       0.13088500
    74  H          0.56108500       0.49159300       0.86911500
    75  H          0.23672800       0.60836500       0.18401800
    76  H          0.76327200       0.39163500       0.81598200
    77  H          0.23538500       0.50980200       0.09076900
    78  H          0.76461500       0.49019800       0.90923100
