data_BOPZUF
_symmetry_space_group_name_H-M    'P1'
_symmetry_Int_Tables_number       1
loop_
_symmetry_equiv_pos_site_id
_symmetry_equiv_pos_as_xyz
1 x,y,z
_cell_length_a                   32.26291
_cell_length_b                   4.1735411
_cell_length_c                   13.54313
_cell_angle_alpha                90.0
_cell_angle_beta                 90.0
_cell_angle_gamma                90.0
loop_
_atom_site_label
_atom_site_type_symbol
_atom_site_fract_x
_atom_site_fract_y
_atom_site_fract_z
     1  C          0.52163000       0.28230000       0.06008000
     2  C          0.47837000       0.71770000       0.56008000
     3  C          0.02163000       0.71770000       0.06008000
     4  C          0.97837000       0.28230000       0.56008000
     5  C          0.53194000       0.40530000       0.15179000
     6  C          0.46806000       0.59470000       0.65179000
     7  C          0.03194000       0.59470000       0.15179000
     8  C          0.96806000       0.40530000       0.65179000
     9  H          0.55591600       0.53004000       0.15986900
    10  H          0.44408400       0.46996000       0.65986900
    11  H          0.05591600       0.46996000       0.15986900
    12  H          0.94408400       0.53004000       0.65986900
    13  C          0.50645000       0.34140000       0.23081100
    14  C          0.49355000       0.65860000       0.73081100
    15  C          0.00645000       0.65860000       0.23081100
    16  C          0.99355000       0.34140000       0.73081100
    17  H          0.51316600       0.42098400       0.29361800
    18  H          0.48683400       0.57901600       0.79361800
    19  H          0.01316600       0.57901600       0.29361800
    20  H          0.98683400       0.42098400       0.79361800
    21  C          0.47135000       0.16140000       0.21881300
    22  C          0.52865000       0.83860000       0.71881300
    23  C          0.97135000       0.83860000       0.21881300
    24  C          0.02865000       0.16140000       0.71881300
    25  H          0.45386500       0.12178400       0.27313200
    26  H          0.54613500       0.87821600       0.77313200
    27  H          0.95386500       0.87821600       0.27313200
    28  H          0.04613500       0.12178400       0.77313200
    29  C          0.46144000       0.04040000       0.12791800
    30  C          0.53856000       0.95960000       0.62791800
    31  C          0.96144000       0.95960000       0.12791800
    32  C          0.03856000       0.04040000       0.62791800
    33  H          0.43753200       0.91288500       0.12034700
    34  H          0.56246800       0.08711500       0.62034700
    35  H          0.93753200       0.08711500       0.12034700
    36  H          0.06246800       0.91288500       0.62034700
    37  C          0.48624000       0.10140000       0.04811200
    38  C          0.51376000       0.89860000       0.54811200
    39  C          0.98624000       0.89860000       0.04811200
    40  C          0.01376000       0.10140000       0.54811200
    41  H          0.47905100       0.02125700       0.98548400
    42  H          0.52094900      -0.02125700       0.48548400
    43  H          0.97905100      -0.02125700       0.98548400
    44  H          0.02094900       0.02125700       0.48548400
    45  O          0.54502000       0.35820000       0.97625000
    46  O          0.45498000       0.64180000       0.47625000
    47  O          0.04502000       0.64180000       0.97625000
    48  O          0.95498000       0.35820000       0.47625000
    49  C          0.58363000       0.23730000       0.97086000
    50  C          0.41637000       0.76270000       0.47086000
    51  C          0.08363000       0.76270000       0.97086000
    52  C          0.91637000       0.23730000       0.47086000
    53  C          0.60433000       0.34830000       0.88147000
    54  C          0.39567000       0.65170000       0.38147000
    55  C          0.10433000       0.65170000       0.88147000
    56  C          0.89567000       0.34830000       0.38147000
    57  C          0.62193000       0.42220000       0.81047000
    58  C          0.37807000       0.57780000       0.31047000
    59  C          0.12193000       0.57780000       0.81047000
    60  C          0.87807000       0.42220000       0.31047000
    61  I          0.65278200       0.54252900       0.68500800
    62  I          0.34721800       0.45747100       0.18500800
    63  I          0.15278200       0.45747100       0.68500800
    64  I          0.84721800       0.54252900       0.18500800
    65  O          0.59893000       0.05730000       0.02868000
    66  O          0.40107000       0.94270000       0.52868000
    67  O          0.09893000       0.94270000       0.02868000
    68  O          0.90107000       0.05730000       0.52868000
    69  N          0.69302000       0.62341800       0.49805000
    70  N          0.30698000       0.37658200      -0.00195000
    71  N          0.19302000       0.37658200       0.49805000
    72  N          0.80698000       0.62341800      -0.00195000
    73  C          0.72603000       0.43720000       0.47836000
    74  C          0.27397000       0.56280000       0.97836000
    75  C          0.22603000       0.56280000       0.47836000
    76  C          0.77397000       0.43720000       0.97836000
    77  C          0.75353000       0.34820000       0.55597000
    78  C          0.24647000       0.65180000       0.05597000
    79  C          0.25353000       0.65180000       0.55597000
    80  C          0.74647000       0.34820000       0.05597000
    81  H          0.74865400       0.42120000       0.62046600
    82  H          0.25134600       0.57880000       0.12046600
    83  H          0.24865400       0.57880000       0.62046600
    84  H          0.75134600       0.42120000       0.12046600
    85  C          0.78663000       0.15730000       0.53708000
    86  C          0.21337000       0.84270000       0.03708000
    87  C          0.28663000       0.84270000       0.53708000
    88  C          0.71337000       0.15730000       0.03708000
    89  H          0.80422800       0.09852600       0.58921300
    90  H          0.19577200       0.90147400       0.08921300
    91  H          0.30422800       0.90147400       0.58921300
    92  H          0.69577200       0.09852600       0.08921300
    93  C          0.79523000       0.04520000       0.44151000
    94  C          0.20477000       0.95480000       0.94151000
    95  C          0.29523000       0.95480000       0.44151000
    96  C          0.70477000       0.04520000       0.94151000
    97  H          0.81875700       0.91639700       0.43085100
    98  H          0.18124300       0.08360300       0.93085100
    99  H          0.31875700       0.08360300       0.43085100
   100  H          0.68124300       0.91639700       0.93085100
   101  C          0.76993000       0.12020000       0.36337000
   102  C          0.23007000       0.87980000       0.86337000
   103  C          0.26993000       0.87980000       0.36337000
   104  C          0.73007000       0.12020000       0.86337000
   105  H          0.77527000       0.03822000       0.29991500
   106  H          0.22473000       0.96178000       0.79991500
   107  H          0.27527000       0.96178000       0.29991500
   108  H          0.72473000       0.03822000       0.79991500
   109  C          0.73473000       0.32720000       0.38076000
   110  C          0.26527000       0.67280000       0.88076000
   111  C          0.23473000       0.67280000       0.38076000
   112  C          0.76527000       0.32720000       0.88076000
   113  N          0.71122000       0.41041800       0.30415000
   114  N          0.28878000       0.58958200       0.80415000
   115  N          0.21122000       0.58958200       0.30415000
   116  N          0.78878000       0.41041800       0.80415000
   117  C          0.67843000       0.60420000       0.32286000
   118  C          0.32157000       0.39580000       0.82286000
   119  C          0.17843000       0.39580000       0.32286000
   120  C          0.82157000       0.60420000       0.82286000
   121  C          0.65243000       0.70330000       0.24407000
   122  C          0.34757000       0.29670000       0.74407000
   123  C          0.15243000       0.29670000       0.24407000
   124  C          0.84757000       0.70330000       0.74407000
   125  H          0.65817800       0.63582200       0.17918500
   126  H          0.34182200       0.36417800       0.67918500
   127  H          0.15817800       0.36417800       0.17918500
   128  H          0.84182200       0.63582200       0.67918500
   129  C          0.61933000       0.89430000       0.26158000
   130  C          0.38067000       0.10570000       0.76158000
   131  C          0.11933000       0.10570000       0.26158000
   132  C          0.88067000       0.89430000       0.76158000
   133  H          0.60204100       0.95774500       0.20901600
   134  H          0.39795900       0.04225500       0.70901600
   135  H          0.10204100       0.04225500       0.20901600
   136  H          0.89795900       0.95774500       0.70901600
   137  C          0.61054000      -0.00080000       0.35941100
   138  C          0.38946000       0.00080000       0.85941100
   139  C          0.11054000       0.00080000       0.35941100
   140  C          0.88946000      -0.00080000       0.85941100
   141  H          0.58771800       0.13489600       0.37072800
   142  H          0.41228200       0.86510400       0.87072800
   143  H          0.08771800       0.86510400       0.37072800
   144  H          0.91228200       0.13489600       0.87072800
   145  C          0.63433000       0.90720000       0.43617000
   146  C          0.36567000       0.09280000       0.93617000
   147  C          0.13433000       0.09280000       0.43617000
   148  C          0.86567000       0.90720000       0.93617000
   149  H          0.62772100      -0.02298900       0.50026800
   150  H          0.37227900       0.02298900       0.00026800
   151  H          0.12772100       0.02298900       0.50026800
   152  H          0.87227900      -0.02298900       0.00026800
   153  C          0.66923000       0.70621900       0.42085000
   154  C          0.33077000       0.29378100       0.92085000
   155  C          0.16923000       0.29378100       0.42085000
   156  C          0.83077000       0.70621900       0.92085000
