data_BOQCET
_symmetry_space_group_name_H-M    'P1'
_symmetry_Int_Tables_number       1
loop_
_symmetry_equiv_pos_site_id
_symmetry_equiv_pos_as_xyz
1 x,y,z
_cell_length_a                   3.84253
_cell_length_b                   11.48278
_cell_length_c                   13.88289
_cell_angle_alpha                94.1282
_cell_angle_beta                 94.2562
_cell_angle_gamma                95.0012
loop_
_atom_site_label
_atom_site_type_symbol
_atom_site_fract_x
_atom_site_fract_y
_atom_site_fract_z
     1  Cl         0.48022000       0.92238600       0.72854500
     2  Cl         0.51978000       0.07761400       0.27145500
     3  Cl         0.08252000       0.49875500       0.84810500
     4  Cl         0.91748000       0.50124500       0.15189500
     5  Cl         0.76362000       0.83578700       0.09937500
     6  Cl         0.23638000       0.16421300       0.90062500
     7  O          0.12795000       0.67330150       0.70970110
     8  O          0.87205000       0.32669850       0.29029890
     9  H          0.18574300       0.71774000       0.66882600
    10  H          0.81425700       0.28226000       0.33117400
    11  C          0.45296000       0.82629190       0.81907160
    12  C          0.54704000       0.17370810       0.18092840
    13  C          0.28486000       0.71421190       0.79664150
    14  C          0.71514000       0.28578810       0.20335850
    15  C          0.27586000       0.64071190       0.87216160
    16  C          0.72414000       0.35928810       0.12783840
    17  C          0.41966000       0.67652000       0.96467170
    18  C          0.58034000       0.32348000       0.03532830
    19  H          0.40745000       0.62569300       0.01381500
    20  H          0.59255000       0.37430700       0.98618500
    21  C          0.58196000       0.78882000       0.98321170
    22  C          0.41804000       0.21118000       0.01678830
    23  C          0.60146000       0.86482000       0.91125170
    24  C          0.39854000       0.13518000       0.08874830
    25  H          0.71168000       0.94032300       0.92406300
    26  H          0.28832000       0.05967700       0.07593700
    27  N          0.24446000       0.73773160       0.52987140
    28  N          0.75554000       0.26226840       0.47012860
    29  C          0.34696000       0.64980180       0.47202150
    30  C          0.65304000       0.35019820       0.52797850
    31  C          0.13997000       0.83172000       0.48850190
    32  C          0.86003000       0.16828000       0.51149810
    33  H          0.06670200       0.89200000       0.52824200
    34  H          0.93329800       0.10800000       0.47175800
    35  C          0.13427000       0.84452000       0.39122000
    36  C          0.86573000       0.15548000       0.60878000
    37  H          0.06040200       0.91183700       0.36577300
    38  H          0.93959800       0.08816300       0.63422700
    39  C          0.24017000       0.75542000       0.33203190
    40  C          0.75983000       0.24458000       0.66796810
    41  H          0.24048200       0.76152700       0.26559900
    42  H          0.75951800       0.23847300       0.73440100
    43  C          0.34587000       0.65712000       0.37250170
    44  C          0.65413000       0.34288000       0.62749830
    45  H          0.41614500       0.59564600       0.33339700
    46  H          0.58385500       0.40435400       0.66660300
    47  C          0.45926000       0.54955190       0.52121160
    48  C          0.54074000       0.45044810       0.47878840
    49  H          0.47444300       0.55635300       0.58857800
    50  H          0.52555700       0.44364700       0.41142200
