data_BOQGIB
_symmetry_space_group_name_H-M    'P1'
_symmetry_Int_Tables_number       1
loop_
_symmetry_equiv_pos_site_id
_symmetry_equiv_pos_as_xyz
1 x,y,z
_cell_length_a                   4.029128
_cell_length_b                   14.47443
_cell_length_c                   19.97556
_cell_angle_alpha                83.3812
_cell_angle_beta                 87.4002
_cell_angle_gamma                86.819118
loop_
_atom_site_label
_atom_site_type_symbol
_atom_site_fract_x
_atom_site_fract_y
_atom_site_fract_z
     1  C          0.46301500       0.78264000       0.18693000
     2  C          0.53698500       0.21736000       0.81307000
     3  C          0.43171700       0.87644000       0.16053000
     4  C          0.56828300       0.12356000       0.83947000
     5  H          0.31292400       0.91892000       0.18508500
     6  H          0.68707600       0.08108000       0.81491500
     7  C          0.57451800       0.90604000       0.09884000
     8  C          0.42548200       0.09396000       0.90116000
     9  H          0.55353400       0.96848700       0.08155700
    10  H          0.44646600       0.03151300       0.91844300
    11  C          0.75181700       0.84194000       0.06183000
    12  C          0.24818300       0.15806000       0.93817000
    13  C          0.78611700       0.74864000       0.08733000
    14  C          0.21388300       0.25136000       0.91267000
    15  H          0.90394600       0.70608300       0.06255700
    16  H          0.09605400       0.29391700       0.93744300
    17  C          0.64321700       0.72004000       0.14963000
    18  C          0.35678300       0.27996000       0.85037000
    19  H          0.66753400       0.65770800       0.16715700
    20  H          0.33246600       0.34229200       0.83284300
    21  C          0.30021800       0.75244000       0.25343000
    22  C          0.69978200       0.24756000       0.74657000
    23  C          0.37541800       0.65624000       0.28223000
    24  C          0.62458200       0.34376000       0.71777000
    25  C          0.44911700       0.57974000       0.30403000
    26  C          0.55088300       0.42026000       0.69597000
    27  I          0.60383100       0.44872200       0.34111200
    28  I          0.39616900       0.55127800       0.65888800
    29  O          0.11701600       0.80433000       0.28343000
    30  O          0.88298400       0.19567000       0.71657000
    31  C          0.90020000       0.87185000      -0.00364000
    32  C          0.09980000       0.12815000       0.00364000
    33  N          0.01920000       0.89425000       0.94446000
    34  N         -0.01920000       0.10575000       0.05554000
    35  N          0.87851300       0.26023000       0.38632000
    36  N          0.12148700       0.73977000       0.61368000
    37  C          0.02921500       0.24154000       0.44543000
    38  C         -0.02921500       0.75846000       0.55457000
    39  C          0.04261800       0.31244000       0.48903000
    40  C          0.95738200       0.68756000       0.51097000
    41  H          0.94675100       0.37152900       0.47657200
    42  H          0.05324900       0.62847100       0.52342800
    43  C          0.19520000       0.29385000       0.54844000
    44  C          0.80480000       0.70615000       0.45156000
    45  H          0.20428800       0.34068800       0.57630500
    46  H          0.79571200       0.65931200       0.42369500
    47  C          0.34020000       0.20445000       0.56903000
    48  C          0.65980000       0.79555000       0.43097000
    49  H          0.44082400       0.19311000       0.61037200
    50  H          0.55917600       0.80689000       0.38962800
    51  C          0.33391900       0.13515000       0.52913000
    52  C          0.66608100       0.86485000       0.47087000
    53  H          0.43482500       0.07697700       0.54262300
    54  H          0.56517500       0.92302300       0.45737700
    55  C          0.17381500       0.15074000       0.46673000
    56  C          0.82618500       0.84926000       0.53327000
    57  N          0.16471400       0.08103000       0.42863000
    58  N          0.83528600       0.91897000       0.57137000
    59  C          0.01361400       0.09894000       0.36983000
    60  C         -0.01361400       0.90106000       0.63017000
    61  C         -0.00928300       0.02584000       0.32844000
    62  C          0.00928300       0.97416000       0.67156000
    63  H          0.07633400       0.96623700       0.34280200
    64  H          0.92366600       0.03376300       0.65719800
    65  C          0.84571900       0.04275000       0.26864000
    66  C          0.15428100       0.95725000       0.73136000
    67  H          0.83457700      -0.00542700       0.24182900
    68  H          0.16542300       0.00542700       0.75817100
    69  C          0.71031900       0.13225000       0.24594000
    70  C          0.28968100       0.86775000       0.75406000
    71  H          0.61408700       0.14241400       0.20402500
    72  H          0.38591300       0.85758600       0.79597500
    73  C          0.71861700       0.20384000       0.28443000
    74  C          0.28138300       0.79616000       0.71557000
    75  H          0.62419300       0.26211200       0.26906600
    76  H          0.37580700       0.73788800       0.73093400
    77  C          0.87071400       0.18993000       0.34773000
    78  C          0.12928600       0.81007000       0.65227000
    79  N          0.36701300       0.58173000       0.02632000
    80  N          0.63298700       0.41827000       0.97368000
    81  C          0.25520000       0.32145000       0.13224000
    82  C          0.74480000       0.67855000       0.86776000
    83  H          0.21900700       0.26337000       0.15582500
    84  H          0.78099300       0.73663000       0.84417500
    85  C          0.42581800       0.32684000       0.07223000
    86  C          0.57418200       0.67316000       0.92777000
    87  H          0.51398800       0.27262600       0.05589600
    88  H          0.48601200       0.72737400       0.94410400
    89  C          0.47181500       0.41454000       0.03393000
    90  C          0.52818500       0.58546000       0.96607000
    91  C          0.33861600       0.49704000       0.06033000
    92  C          0.66138400       0.50296000       0.93967000
    93  C          0.17001900       0.48775000       0.12533000
    94  C          0.82998100       0.51225000       0.87467000
    95  H          0.08717600       0.54055200       0.14410200
    96  H          0.91282400       0.45944800       0.85589800
    97  C          0.13120000       0.40266000       0.15954000
    98  C          0.86880000       0.59734000       0.84046000
    99  H          0.02022700       0.39756800       0.20154500
   100  H         -0.02022700       0.60243200       0.79845500
