data_BOQGUN
_symmetry_space_group_name_H-M    'P1'
_symmetry_Int_Tables_number       1
loop_
_symmetry_equiv_pos_site_id
_symmetry_equiv_pos_as_xyz
1 x,y,z
_cell_length_a                   4.109966
_cell_length_b                   33.84466
_cell_length_c                   9.9902318
_cell_angle_alpha                90.0
_cell_angle_beta                 93.285414
_cell_angle_gamma                90.0
loop_
_atom_site_label
_atom_site_type_symbol
_atom_site_fract_x
_atom_site_fract_y
_atom_site_fract_z
     1  I          0.20884300       0.37501200       0.49720200
     2  I          0.79115700       0.87501200       0.00279800
     3  I          0.79115700       0.62498800       0.50279800
     4  I          0.20884300       0.12498800      -0.00279800
     5  C          0.36776000       0.18128700       0.60572000
     6  C          0.63224000       0.68128700       0.89428000
     7  C          0.63224000       0.81871300       0.39428000
     8  C          0.36776000       0.31871300       0.10572000
     9  H          0.48780700       0.18220300       0.68860000
    10  H          0.51219300       0.68220300       0.81140000
    11  H          0.51219300       0.81779700       0.31140000
    12  H          0.48780700       0.31779700       0.18860000
    13  C          0.04035000       0.21295700       0.42952000
    14  C          0.95965000       0.71295700       0.07048000
    15  C          0.95965000       0.78704300       0.57048000
    16  C          0.04035000       0.28704300       0.92952000
    17  C          0.33416000       0.14635700       0.53472000
    18  C          0.66584000       0.64635700       0.96528000
    19  C          0.66584000       0.85364300       0.46528000
    20  C          0.33416000       0.35364300       0.03472000
    21  C          0.22036000       0.21480700       0.55182000
    22  C          0.77964000       0.71480700       0.94818000
    23  C          0.77964000       0.78519300       0.44818000
    24  C          0.22036000       0.28519300       0.05182000
    25  H          0.24140900       0.23896900       0.59786600
    26  H          0.75859100       0.73896900       0.90213400
    27  H          0.75859100       0.76103100       0.40213400
    28  H          0.24140900       0.26103100       0.09786600
    29  C          0.00926000       0.17733700       0.36013000
    30  C         -0.00926000       0.67733700       0.13987000
    31  C         -0.00926000       0.82266300       0.63987000
    32  C          0.00926000       0.32266300       0.86013000
    33  H          0.88663600       0.17620500       0.27784200
    34  H          0.11336400       0.67620500       0.22215800
    35  H          0.11336400       0.82379500       0.72215800
    36  H          0.88663600       0.32379500       0.77784200
    37  C          0.06506000       0.31919700       0.45803000
    38  C          0.93494000       0.81919700       0.04197000
    39  C          0.93494000       0.68080300       0.54197000
    40  C          0.06506000       0.18080300       0.95803000
    41  O          0.67795000       0.24615600       0.27642000
    42  O          0.32205000       0.74615600       0.22358000
    43  O          0.32205000       0.75384400       0.72358000
    44  O          0.67795000       0.25384400       0.77642000
    45  O          0.46616000       0.08005600       0.52643000
    46  O          0.53384000       0.58005600       0.97357000
    47  O          0.53384000       0.91994400       0.47357000
    48  O          0.46616000       0.41994400       0.02643000
    49  C         -0.02486000       0.28703700       0.42463000
    50  C          0.02486000       0.78703700       0.07537000
    51  C          0.02486000       0.71296300       0.57537000
    52  C         -0.02486000       0.21296300       0.92463000
    53  C          0.15866000       0.14364700       0.41233000
    54  C          0.84134000       0.64364700       0.08767000
    55  C          0.84134000       0.85635300       0.58767000
    56  C          0.15866000       0.35635300       0.91233000
    57  H          0.14159600       0.11949600       0.36588700
    58  H          0.85840400       0.61949600       0.13411300
    59  H          0.85840400       0.88050400       0.63411300
    60  H          0.14159600       0.38050400       0.86588700
    61  O          0.67046000       0.11397700       0.69182000
    62  O          0.32954000       0.61397700       0.80818000
    63  O          0.32954000       0.88602300       0.30818000
    64  O          0.67046000       0.38602300       0.19182000
    65  N          0.50125000       0.11087700       0.58922000
    66  N          0.49875000       0.61087700       0.91078000
    67  N          0.49875000       0.88912300       0.41078000
    68  N          0.50125000       0.38912300       0.08922000
    69  C          0.87934000       0.24874700       0.36993000
    70  C          0.12066000       0.74874700       0.13007000
    71  C          0.12066000       0.75125300       0.63007000
    72  C          0.87934000       0.25125300       0.86993000
    73  N          0.39455000       0.46013600       0.50692000
    74  N          0.60545000       0.96013600      -0.00692000
    75  N          0.60545000       0.53986400       0.49308000
    76  N          0.39455000       0.03986400       0.00692000
    77  C          0.08176000       0.46860700       0.29903000
    78  C          0.91824000       0.96860700       0.20097000
    79  C          0.91824000       0.53139300       0.70097000
    80  C          0.08176000       0.03139300       0.79903000
    81  H          0.00756300       0.44236500       0.30247200
    82  H         -0.00756300       0.94236500       0.19752800
    83  H         -0.00756300       0.55763500       0.69752800
    84  H          0.00756300       0.05763500       0.80247200
    85  C          0.09276000       0.53162800       0.18603000
    86  C          0.90724000       0.03162800       0.31397000
    87  C          0.90724000       0.46837200       0.81397000
    88  C          0.09276000       0.96837200       0.68603000
    89  H          0.02502400       0.54717300       0.11156500
    90  H         -0.02502400       0.04717300       0.38843500
    91  H         -0.02502400       0.45282700       0.88843500
    92  H          0.02502400       0.95282700       0.61156500
    93  C          0.29675000       0.48365700       0.40382000
    94  C          0.70325000       0.98365700       0.09618000
    95  C          0.70325000       0.51634300       0.59618000
    96  C          0.29675000       0.01634300       0.90382000
    97  C          0.29466000       0.54736700       0.28493000
    98  C          0.70534000       0.04736700       0.21507000
    99  C          0.70534000       0.45263300       0.71507000
   100  C          0.29466000       0.95263300       0.78493000
   101  H          0.36204100       0.57381000       0.27913300
   102  H          0.63795900       0.07381000       0.22086700
   103  H          0.63795900       0.42619000       0.72086700
   104  H          0.36204100       0.92619000       0.77913300
   105  C         -0.01636000       0.49207800       0.19423000
   106  C          0.01636000       0.99207800       0.30577000
   107  C          0.01636000       0.50792200       0.80577000
   108  C         -0.01636000       0.00792200       0.69423000
   109  H          0.84088800       0.48188400       0.12586500
   110  H          0.15911200       0.98188400       0.37413500
   111  H          0.15911200       0.51811600       0.87413500
   112  H          0.84088800       0.01811600       0.62586500
   113  C          0.40385000       0.52398700       0.39672000
   114  C          0.59615000       0.02398700       0.10328000
   115  C          0.59615000       0.47601300       0.60328000
   116  C          0.40385000       0.97601300       0.89672000
