data_BOQGEX
_symmetry_space_group_name_H-M    'P1'
_symmetry_Int_Tables_number       1
loop_
_symmetry_equiv_pos_site_id
_symmetry_equiv_pos_as_xyz
1 x,y,z
_cell_length_a                   3.918284
_cell_length_b                   44.78804
_cell_length_c                   15.3599912
_cell_angle_alpha                90.0
_cell_angle_beta                 94.44748
_cell_angle_gamma                90.0
loop_
_atom_site_label
_atom_site_type_symbol
_atom_site_fract_x
_atom_site_fract_y
_atom_site_fract_z
     1  I          0.03343300       0.41898200       0.86497200
     2  I          0.46656700       0.91898200       0.63502800
     3  I         -0.03343300       0.58101800       0.13502800
     4  I          0.53343300       0.08101800       0.36497200
     5  O          0.48086000       0.35665400       0.60111120
     6  O          0.01914000       0.85665400       0.89888880
     7  O          0.51914000       0.64334600       0.39888880
     8  O         -0.01914000       0.14334600       0.10111120
     9  C          0.13736000       0.30492500       0.75236130
    10  C          0.36264000       0.80492500       0.74763870
    11  C          0.86264000       0.69507500       0.24763870
    12  C          0.63736000       0.19507500       0.25236130
    13  H          0.10007800       0.31824100       0.79880100
    14  H          0.39992200       0.81824100       0.70119900
    15  H          0.89992200       0.68175900       0.20119900
    16  H          0.60007800       0.18175900       0.29880100
    17  C          0.25335000       0.31565500       0.67492130
    18  C          0.24665000       0.81565500       0.82507870
    19  C          0.74665000       0.68434500       0.32507870
    20  C          0.75335000       0.18434500       0.17492130
    21  C          0.07606000       0.27443500       0.76122130
    22  C          0.42394000       0.77443500       0.73877870
    23  C          0.92394000       0.72556500       0.23877870
    24  C          0.57606000       0.22556500       0.26122130
    25  C          0.16576000       0.38633500       0.78349140
    26  C          0.33424000       0.88633500       0.71650860
    27  C          0.83424000       0.61366500       0.21650860
    28  C          0.66576000       0.11366500       0.28349140
    29  C          0.33636000       0.34775500       0.66367140
    30  C          0.16364000       0.84775500       0.83632860
    31  C          0.66364000       0.65224500       0.33632860
    32  C          0.83636000       0.15224500       0.16367140
    33  C          0.24356000       0.36847500       0.73130140
    34  C          0.25644000       0.86847500       0.76869860
    35  C          0.75644000       0.63152500       0.26869860
    36  C          0.74356000       0.13152500       0.23130140
    37  N          0.87562000       0.25356600       0.90569150
    38  N          0.62438000       0.75356600       0.59430850
    39  N          0.12438000       0.74643400       0.09430850
    40  N          0.37562000       0.24643400       0.40569150
    41  C          0.30046000       0.29581500       0.60652130
    42  C          0.19954000       0.79581500       0.89347870
    43  C          0.69954000       0.70418500       0.39347870
    44  C          0.80046000       0.20418500       0.10652130
    45  H          0.37872300       0.30307400       0.55348000
    46  H          0.12127700       0.80307400       0.94652000
    47  H          0.62127700       0.69692600       0.44652000
    48  H          0.87872300       0.19692600       0.05348000
    49  C          0.23387000       0.26584500       0.61556150
    50  C          0.26613000       0.76584500       0.88443850
    51  C          0.76613000       0.73415500       0.38443850
    52  C          0.73387000       0.23415500       0.11556150
    53  H          0.26264300       0.25263000       0.56831200
    54  H          0.23735700       0.75263000       0.93168800
    55  H          0.73735700       0.74737000       0.43168800
    56  H          0.76264300       0.24737000       0.06831200
    57  C          0.12496000       0.25476500       0.69319150
    58  C          0.37504000       0.75476500       0.80680850
    59  C          0.87504000       0.74523500       0.30680850
    60  C          0.62496000       0.24523500       0.19319150
    61  H          0.08428600       0.23399500       0.69975900
    62  H          0.41571400       0.73399500       0.80024100
    63  H          0.91571400       0.76600500       0.30024100
    64  H          0.58428600       0.26600500       0.19975900
    65  C         -0.03667000       0.26292500       0.84194160
    66  C          0.53667000       0.76292500       0.65805840
    67  C          0.03667000       0.73707500       0.15805840
    68  C          0.46333000       0.23707500       0.34194160
    69  N          0.89984000       0.47150400       0.96719110
    70  N          0.60016000       0.97150400       0.53280890
    71  N          0.10016000       0.52849600       0.03280890
    72  N          0.39984000       0.02849600       0.46719110
    73  C          0.81425000       0.49658400       0.92249120
    74  C          0.68575000       0.99658400       0.57750880
    75  C          0.18575000       0.50341600       0.07750880
    76  C          0.31425000       0.00341600       0.42249120
    77  C          0.91655000       0.52549400       0.95553120
    78  C          0.58345000       0.02549400       0.54446880
    79  C          0.08345000       0.47450600       0.04446880
    80  C          0.41655000       0.97450600       0.45553120
    81  C          0.82296000       0.55133500       0.90519130
    82  C          0.67704000       0.05133500       0.59480870
    83  C          0.17704000       0.44866500       0.09480870
    84  C          0.32296000       0.94866500       0.40519130
    85  H          0.89048000       0.57056500       0.92609500
    86  H          0.60952000       0.07056500       0.57390500
    87  H          0.10952000       0.42943500       0.07390500
    88  H          0.39048000       0.92943500       0.42609500
    89  C          0.61736000       0.49470500       0.84076130
    90  C          0.88264000       0.99470500       0.65923870
    91  C          0.38264000       0.50529500       0.15923870
    92  C          0.11736000       0.00529500       0.34076130
    93  H          0.54537200       0.47574400       0.81843800
    94  H          0.95462800       0.97574400       0.68156200
    95  H          0.45462800       0.52425600       0.18156200
    96  H          0.04537200       0.02425600       0.31843800
    97  C          0.63596000       0.54843500       0.82686140
    98  C          0.86404000       0.04843500       0.67313860
    99  C          0.36404000       0.45156500       0.17313860
   100  C          0.13596000       0.95156500       0.32686140
   101  H          0.57476800       0.56577600       0.79362200
   102  H          0.92523200       0.06577600       0.70637800
   103  H          0.42523200       0.43422400       0.20637800
   104  H          0.07476800       0.93422400       0.29362200
   105  C          0.53136000       0.51993500       0.79424140
   106  C         -0.03136000       0.01993500       0.70575860
   107  C          0.46864000       0.48006500       0.20575860
   108  C          0.03136000       0.98006500       0.29424140
   109  H          0.40060800       0.51840900       0.73968900
   110  H          0.09939200       0.01840900       0.76031100
   111  H          0.59939200       0.48159100       0.26031100
   112  H          0.90060800       0.98159100       0.23968900
   113  N          0.88335000       0.49323400       0.41235110
   114  N          0.61665000       0.99323400       0.08764890
   115  N          0.11665000       0.50676600       0.58764890
   116  N          0.38335000       0.00676600       0.91235110
   117  C          0.94505000       0.48156500       0.56688130
   118  C          0.55495000       0.98156500       0.93311870
   119  C          0.05495000       0.51843500       0.43311870
   120  C          0.44505000       0.01843500       0.06688130
   121  C          0.82665000       0.47475500       0.47836130
   122  C          0.67335000       0.97475500       0.02163870
   123  C          0.17335000       0.52524500       0.52163870
   124  C          0.32665000       0.02524500       0.97836130
   125  C          0.64336000       0.44762500       0.46077150
   126  C          0.85664000       0.94762500       0.03922850
   127  C          0.35664000       0.55237500       0.53922850
   128  C          0.14336000       0.05237500       0.96077150
   129  H          0.56172100       0.44287700       0.40255000
   130  H          0.93827900       0.94287700       0.09745000
   131  H          0.43827900       0.55712300       0.59745000
   132  H          0.06172100       0.05712300       0.90255000
   133  C          0.87776000       0.46087500       0.63381140
   134  C          0.62224000       0.96087500       0.86618860
   135  C          0.12224000       0.53912500       0.36618860
   136  C          0.37776000       0.03912500       0.13381140
   137  H          0.95503600       0.46507900       0.69267400
   138  H          0.54496400       0.96507900       0.80732600
   139  H          0.04496400       0.53492100       0.30732600
   140  H          0.45503600       0.03492100       0.19267400
   141  C          0.58436000       0.42847500       0.52685170
   142  C          0.91564000       0.92847500       0.97314830
   143  C          0.41564000       0.57152500       0.47314830
   144  C          0.08436000       0.07152500       0.02685170
   145  H          0.46193100       0.41046600       0.51435100
   146  H          0.03806900       0.91046600       0.98564900
   147  H          0.53806900       0.58953400       0.48564900
   148  H         -0.03806900       0.08953400       0.01435100
   149  C          0.70446000       0.43520500       0.61440160
   150  C          0.79554000       0.93520500       0.88559840
   151  C          0.29554000       0.56479500       0.38559840
   152  C          0.20446000       0.06479500       0.11440160
   153  H          0.66272200       0.42157800       0.65978700
   154  H          0.83727800       0.92157800       0.84021300
   155  H          0.33727800       0.57842200       0.34021300
   156  H          0.16272200       0.07842200       0.15978700
   157  N          0.12925000       0.31236400       0.19749120
   158  N          0.37075000       0.81236400       0.30250880
   159  N          0.87075000       0.68763600       0.80250880
   160  N          0.62925000       0.18763600       0.69749120
   161  N          0.30525000       0.37391400       0.19739130
   162  N          0.19475000       0.87391400       0.30260870
   163  N          0.69475000       0.62608600       0.80260870
   164  N          0.80525000       0.12608600       0.69739130
   165  C          0.26725000       0.32507500       0.12923140
   166  C          0.23275000       0.82507500       0.37076860
   167  C          0.73275000       0.67492500       0.87076860
   168  C          0.76725000       0.17492500       0.62923140
   169  C          0.35946000       0.35606500       0.12947140
   170  C          0.14054000       0.85606500       0.37052860
   171  C          0.64054000       0.64393500       0.87052860
   172  C          0.85946000       0.14393500       0.62947140
   173  C          0.07976000       0.33011500       0.26583140
   174  C          0.42024000       0.83011500       0.23416860
   175  C          0.92024000       0.66988500       0.73416860
   176  C          0.57976000       0.16988500       0.76583140
   177  C          0.32346000       0.30744500       0.05456150
   178  C          0.17654000       0.80744500       0.44543850
   179  C          0.67654000       0.69255500       0.94543850
   180  C          0.82346000       0.19255500       0.55456150
   181  H          0.25776200       0.28702000       0.05279400
   182  H          0.24223800       0.78702000       0.44720600
   183  H          0.74223800       0.71298000       0.94720600
   184  H          0.75776200       0.21298000       0.55279400
   185  C          0.16476000       0.36128500       0.26536150
   186  C          0.33524000       0.86128500       0.23463850
   187  C          0.83524000       0.63871500       0.73463850
   188  C          0.66476000       0.13871500       0.76536150
   189  C          0.94213000       0.31778600       0.34130160
   190  C          0.55787000       0.81778600       0.15869840
   191  C          0.05787000       0.68221400       0.65869840
   192  C          0.44213000       0.18221400       0.84130160
   193  H          0.88812200       0.29712900       0.34318800
   194  H          0.61187800       0.79712900       0.15681200
   195  H          0.11187800       0.70287100       0.65681200
   196  H          0.38812200       0.20287100       0.84318800
   197  C          0.51266000       0.36797500       0.05580160
   198  C         -0.01266000       0.86797500       0.44419840
   199  C          0.48734000       0.63202500       0.94419840
   200  C          0.01266000       0.13202500       0.55580160
   201  H          0.57709400       0.38841400       0.05517100
   202  H          0.92290600       0.88841400       0.44482900
   203  H          0.42290600       0.61158600       0.94482900
   204  H          0.07709400       0.11158600       0.55517100
   205  C          0.10007000       0.37908600       0.33932180
   206  C          0.39993000       0.87908600       0.16067820
   207  C          0.89993000       0.62091400       0.66067820
   208  C          0.60007000       0.12091400       0.83932180
   209  H          0.14918500       0.39984600       0.33937600
   210  H          0.35081500       0.89984600       0.16062400
   211  H          0.85081500       0.60015400       0.66062400
   212  H          0.64918500       0.10015400       0.83937600
   213  C          0.56676000       0.35026600       0.98656840
   214  C          0.93324000       0.85026600       0.51343160
   215  C          0.43324000       0.64973400       0.01343160
   216  C          0.06676000       0.14973400       0.48656840
   217  H          0.67032500       0.35840500       0.93795700
   218  H          0.82967500       0.85840500       0.56204300
   219  H          0.32967500       0.64159500       0.06204300
   220  H          0.17032500       0.14159500       0.43795700
   221  C          0.47066000       0.31973600       0.98586850
   222  C          0.02934000       0.81973600       0.51413150
   223  C          0.52934000       0.68026400       0.01413150
   224  C         -0.02934000       0.18026400       0.48586850
   225  H          0.50978300       0.30771000       0.93666800
   226  H         -0.00978300       0.80771000       0.56333200
   227  H          0.49021700       0.69229000       0.06333200
   228  H          0.00978300       0.19229000       0.43666800
   229  C         -0.03217000       0.36635700       0.40974180
   230  C          0.53217000       0.86635700       0.09025820
   231  C          0.03217000       0.63364300       0.59025820
   232  C          0.46783000       0.13364300       0.90974180
   233  H          0.92845600       0.37830100       0.45906300
   234  H          0.57154400       0.87830100       0.04093700
   235  H          0.07154400       0.62169900       0.54093700
   236  H          0.42845600       0.12169900       0.95906300
   237  C          0.88873000       0.33564700       0.41047170
   238  C          0.61127000       0.83564700       0.08952830
   239  C          0.11127000       0.66435300       0.58952830
   240  C          0.38873000       0.16435300       0.91047170
   241  H          0.79621300       0.32725900       0.46034800
   242  H          0.70378700       0.82725900       0.03965200
   243  H          0.20378700       0.67274100       0.53965200
   244  H          0.29621300       0.17274100       0.96034800
