data_BOQHOE04
_symmetry_space_group_name_H-M    'P1'
_symmetry_Int_Tables_number       1
loop_
_symmetry_equiv_pos_site_id
_symmetry_equiv_pos_as_xyz
1 x,y,z
_cell_length_a                   4.89065
_cell_length_b                   5.75175
_cell_length_c                   10.84759
_cell_angle_alpha                81.7857
_cell_angle_beta                 81.1378
_cell_angle_gamma                77.4908
loop_
_atom_site_label
_atom_site_type_symbol
_atom_site_fract_x
_atom_site_fract_y
_atom_site_fract_z
     1  Cl         0.79512000       0.77659180       0.65576800
     2  Cl         0.20488000       0.22340820       0.34423200
     3  C          0.63647000       0.63036000       0.56793000
     4  C          0.36353000       0.36964000       0.43207000
     5  C          0.47487000       0.45616000       0.63443000
     6  C          0.52513000       0.54384000       0.36557000
     7  C          0.33387000       0.32726000       0.55853000
     8  C          0.66613000       0.67274000       0.44147000
     9  O          0.18046000       0.17565000       0.62042000
    10  O          0.81954000       0.82435000       0.37958000
    11  O          0.44605000       0.40945000       0.74853190
    12  O          0.55395000       0.59055000       0.25146810
    13  H          0.18980000       0.16070000       0.69140000
    14  H          0.81020000       0.83930000       0.30860000
    15  H          0.81180000       0.84070000       0.30940000
    16  H          0.18820000       0.15930000       0.69060000
    17  N          0.92127000       0.94066000       0.12813000
    18  N          0.07873000       0.05934000       0.87187000
    19  C          0.08851000       0.79119000       0.05764000
    20  C          0.91149000       0.20881000       0.94236000
    21  C          0.16551000       0.85119000       0.93034000
    22  C          0.83449000       0.14881000       0.06966000
    23  H          0.18670000       0.65660000       0.09330000
    24  H          0.81330000       0.34340000       0.90670000
    25  H          0.30060000       0.74150000       0.89230000
    26  H          0.69940000       0.25850000       0.10770000
