data_BOQHAU
_symmetry_space_group_name_H-M    'P1'
_symmetry_Int_Tables_number       1
loop_
_symmetry_equiv_pos_site_id
_symmetry_equiv_pos_as_xyz
1 x,y,z
_cell_length_a                   3.934122
_cell_length_b                   29.0764216
_cell_length_c                   16.180549
_cell_angle_alpha                90.0
_cell_angle_beta                 95.39055
_cell_angle_gamma                90.0
loop_
_atom_site_label
_atom_site_type_symbol
_atom_site_fract_x
_atom_site_fract_y
_atom_site_fract_z
     1  I          0.50366300       0.31409200       0.53397200
     2  I          0.50366300       0.68590800       0.03397200
     3  I          0.00366300       0.81409200       0.53397200
     4  I          0.00366300       0.18590800       0.03397200
     5  O          0.17468000       0.44340900       0.31961170
     6  O          0.17468000       0.55659100       0.81961170
     7  O          0.67468000       0.94340900       0.31961170
     8  O          0.67468000       0.05659100       0.81961170
     9  C          0.92818800       0.54493140       0.14272000
    10  C          0.92818800       0.45506860       0.64272000
    11  C          0.42818800       0.04493140       0.14272000
    12  C          0.42818800       0.95506860       0.64272000
    13  H          0.87725000       0.56759900       0.10111800
    14  H          0.87725000       0.43240100       0.60111800
    15  H          0.37725000       0.06759900       0.10111800
    16  H          0.37725000       0.93240100       0.60111800
    17  C          0.33221000       0.37361130       0.48062000
    18  C          0.33221000       0.62638870       0.98062000
    19  C          0.83221000       0.87361130       0.48062000
    20  C          0.83221000       0.12638870       0.98062000
    21  C          0.25311100       0.60222130       0.22972000
    22  C          0.25311100       0.39777870       0.72972000
    23  C          0.75311100       0.10222130       0.22972000
    24  C          0.75311100       0.89777870       0.72972000
    25  N          0.35931300       0.63823130       0.24033000
    26  N          0.35931300       0.36176870       0.74033000
    27  N          0.85931300       0.13823130       0.24033000
    28  N          0.85931300       0.86176870       0.74033000
    29  C          0.81188900       0.50064140       0.13072000
    30  C          0.81188900       0.49935860       0.63072000
    31  C          0.31188900       0.00064140       0.13072000
    32  C          0.31188900      -0.00064140       0.63072000
    33  H          0.67922400       0.49274700       0.08059200
    34  H          0.67922400       0.50725300       0.58059200
    35  H          0.17922400       0.99274700       0.08059200
    36  H          0.17922400       0.00725300       0.58059200
    37  C          0.22941100       0.40750130       0.44542000
    38  C          0.22941100       0.59249870       0.94542000
    39  C          0.72941100       0.90750130       0.44542000
    40  C          0.72941100       0.09249870       0.94542000
    41  C          0.88738900       0.46715130       0.19152000
    42  C          0.88738900       0.53284870       0.69152000
    43  C          0.38738900       0.96715130       0.19152000
    44  C          0.38738900       0.03284870       0.69152000
    45  H          0.80714500       0.43652500       0.18325600
    46  H          0.80714500       0.56347500       0.68325600
    47  H          0.30714500       0.93652500       0.18325600
    48  H          0.30714500       0.06347500       0.68325600
    49  O          0.94978900       0.47897120       0.42592000
    50  O          0.94978900       0.52102880       0.92592000
    51  O          0.44978900       0.97897120       0.42592000
    52  O          0.44978900       0.02102880       0.92592000
    53  C          0.20381000       0.52338130       0.27852000
    54  C          0.20381000       0.47661870       0.77852000
    55  C          0.70381000       0.02338130       0.27852000
    56  C          0.70381000       0.97661870       0.77852000
    57  H          0.33857300       0.53092000       0.32849100
    58  H          0.33857300       0.46908000       0.82849100
    59  H          0.83857300       0.03092000       0.32849100
    60  H          0.83857300       0.96908000       0.82849100
    61  C          0.10081200       0.44722140       0.39933000
    62  C          0.10081200       0.55277860       0.89933000
    63  C          0.60081200       0.94722140       0.39933000
    64  C          0.60081200       0.05277860       0.89933000
    65  C          0.08011000       0.47923120       0.26372000
    66  C          0.08011000       0.52076880       0.76372000
    67  C          0.58011000       0.97923120       0.26372000
    68  C          0.58011000       0.02076880       0.76372000
    69  C          0.12281000       0.55635120       0.21702000
    70  C          0.12281000       0.44364880       0.71702000
    71  C          0.62281000       0.05635120       0.21702000
    72  C          0.62281000       0.94364880       0.71702000
    73  C          0.22181300       0.24927190       0.78733000
    74  C          0.22181300       0.75072810       0.28733000
    75  C          0.72181300       0.74927190       0.78733000
    76  C          0.72181300       0.25072810       0.28733000
    77  H          0.29086100       0.27519700       0.82041000
    78  H          0.29086100       0.72480300       0.32041000
    79  H          0.79086100       0.77519700       0.82041000
    80  H          0.79086100       0.22480300       0.32041000
    81  N          0.72738000       0.22342100       0.59264190
    82  N          0.72738000       0.77657900       0.09264190
    83  N          0.22738000       0.72342100       0.59264190
    84  N          0.22738000       0.27657900       0.09264190
    85  C          0.64111200       0.18573100       0.54663000
    86  C          0.64111200       0.81426900       0.04663000
    87  C          0.14111200       0.68573100       0.54663000
    88  C          0.14111200       0.31426900       0.04663000
    89  N          0.94379000       0.13416110       0.64642000
    90  N          0.94379000       0.86583890       0.14642000
    91  N          0.44379000       0.63416110       0.64642000
    92  N          0.44379000       0.36583890       0.14642000
    93  C          0.44111300       0.19012130       0.46923000
    94  C          0.44111300       0.80987870       0.96923000
    95  C          0.94111300       0.69012130       0.46923000
    96  C          0.94111300       0.30987870       0.96923000
    97  H          0.36391400       0.21961200       0.45042000
    98  H          0.36391400       0.78038800       0.95042000
    99  H          0.86391400       0.71961200       0.45042000
   100  H          0.86391400       0.28038800       0.95042000
   101  C          0.92029000       0.21696120       0.66442000
   102  C          0.92029000       0.78303880       0.16442000
   103  C          0.42029000       0.71696120       0.66442000
   104  C          0.42029000       0.28303880       0.16442000
   105  C          0.35931100       0.15217160       0.42163000
   106  C          0.35931100       0.84782840       0.92163000
   107  C          0.85931100       0.65217160       0.42163000
   108  C          0.85931100       0.34782840       0.92163000
   109  H          0.22870100       0.15555800       0.36953300
   110  H          0.22870100       0.84444200       0.86953300
   111  H          0.72870100       0.65555800       0.36953300
   112  H          0.72870100       0.34444200       0.86953300
   113  C          0.23441100       0.16705150       0.76822000
   114  C          0.23441100       0.83294850       0.26822000
   115  C          0.73441100       0.66705150       0.76822000
   116  C          0.73441100       0.33294850       0.26822000
   117  H          0.30776200       0.13739000       0.78692100
   118  H          0.30776200       0.86261000       0.28692100
   119  H          0.80776200       0.63739000       0.78692100
   120  H          0.80776200       0.36261000       0.28692100
   121  C          0.46741100       0.10776150       0.44933000
   122  C          0.46741100       0.89223850       0.94933000
   123  C         -0.03258900       0.60776150       0.44933000
   124  C         -0.03258900       0.39223850       0.94933000
   125  H          0.40609900       0.08169000       0.41574600
   126  H          0.40609900       0.91831000       0.91574600
   127  H          0.90609900       0.58169000       0.41574600
   128  H          0.90609900       0.41831000       0.91574600
   129  C          0.02771000       0.17180130       0.69212000
   130  C          0.02771000       0.82819870       0.19212000
   131  C          0.52771000       0.67180130       0.69212000
   132  C          0.52771000       0.32819870       0.19212000
   133  C          0.65721100       0.10203130       0.52293000
   134  C          0.65721100       0.89796870       0.02293000
   135  C          0.15721100       0.60203130       0.52293000
   136  C          0.15721100       0.39796870       0.02293000
   137  H          0.72696400       0.07205300       0.54063800
   138  H          0.72696400       0.92794700       0.04063800
   139  H          0.22696400       0.57205300       0.54063800
   140  H          0.22696400       0.42794700       0.04063800
   141  C          0.02391000       0.25569130       0.71512000
   142  C          0.02391000       0.74430870       0.21512000
   143  C          0.52391000       0.75569130       0.71512000
   144  C          0.52391000       0.24430870       0.21512000
   145  H          0.95429500       0.28580900       0.69819500
   146  H          0.95429500       0.71419100       0.19819500
   147  H          0.45429500       0.78580900       0.69819500
   148  H          0.45429500       0.21419100       0.19819500
   149  C          0.32811100       0.20483160       0.81442000
   150  C          0.32811100       0.79516840       0.31442000
   151  C          0.82811100       0.70483160       0.81442000
   152  C          0.82811100       0.29516840       0.31442000
   153  H          0.46622000       0.20135000       0.86544000
   154  H          0.46622000       0.79865000       0.36544000
   155  H         -0.03378000       0.70135000       0.86544000
   156  H         -0.03378000       0.29865000       0.36544000
   157  C          0.75261000       0.14077130       0.57402000
   158  C          0.75261000       0.85922870       0.07402000
   159  C          0.25261000       0.64077130       0.57402000
   160  C          0.25261000       0.35922870       0.07402000
