data_BOSFEY
_symmetry_space_group_name_H-M    'P1'
_symmetry_Int_Tables_number       1
loop_
_symmetry_equiv_pos_site_id
_symmetry_equiv_pos_as_xyz
1 x,y,z
_cell_length_a                   17.5714
_cell_length_b                   5.5608
_cell_length_c                   25.155
_cell_angle_alpha                90.0
_cell_angle_beta                 107.602
_cell_angle_gamma                90.0
loop_
_atom_site_label
_atom_site_type_symbol
_atom_site_fract_x
_atom_site_fract_y
_atom_site_fract_z
     1  O          0.55415000       0.63201100       0.41234000
     2  O          0.44585000       0.13201100       0.58766000
     3  O          0.45814000       0.50501200       0.44474000
     4  O          0.54186000       0.00501200       0.55526000
     5  N          0.50115000       0.05991100       0.43994000
     6  N          0.49885000       0.55991100       0.56006000
     7  H          0.52967900       0.09391100       0.47574600
     8  H          0.47032100       0.59391100       0.52425400
     9  H          0.51197800       0.90698000       0.43147300
    10  H          0.48802200       0.40698000       0.56852700
    11  H          0.44807400       0.07401100       0.43579200
    12  H          0.55192600       0.57401100       0.56420800
    13  C          0.51185000       0.47711400       0.42285000
    14  C          0.48815000      -0.02288600       0.57715000
    15  C          0.52266000       0.22371300       0.40345000
    16  C          0.47734000       0.72371300       0.59655000
    17  H          0.58006500       0.19914900       0.40625900
    18  H          0.41993500       0.69914900       0.59374100
    19  C          0.48716000       0.35281700       0.30585000
    20  C          0.51284000       0.85281700       0.69415000
    21  C          0.47347000       0.18111500       0.34485000
    22  C          0.52653000       0.68111500       0.65515000
    23  H          0.48485900       0.01777400       0.33351500
    24  H          0.51514100       0.51777400       0.66648500
    25  H          0.41624600       0.18620500       0.34283600
    26  H          0.58375400       0.68620500       0.65716400
    27  C          0.55827000       0.34971900       0.29265000
    28  C          0.44173000       0.84971900       0.70735000
    29  H          0.59669000       0.22890300       0.30827400
    30  H          0.40331000       0.72890300       0.69172600
    31  C          0.43177000       0.52781900       0.28295000
    32  C          0.56823000       0.02781900       0.71705000
    33  H          0.38260500       0.53121500       0.29146100
    34  H          0.61739500       0.03121500       0.70853900
    35  C          0.51809000       0.69420000       0.23747000
    36  C          0.48191000       0.19420000       0.76253000
    37  H          0.52970200       0.81931000       0.21527900
    38  H          0.47029800       0.31931000       0.78472100
    39  C          0.44648000       0.69581900       0.24805000
    40  C          0.55352000       0.19581900       0.75195000
    41  H          0.40715400       0.81313600       0.23121800
    42  H          0.59284600       0.31313600       0.76878200
    43  C          0.57398000       0.51720000       0.25776000
    44  C          0.42602000       0.01720000       0.74224000
    45  H          0.62190000       0.51087200       0.24769900
    46  H          0.37810000       0.01087200       0.75230100
    47  C          0.82526000       0.60571800       0.49525000
    48  C          0.17474000       0.10571800       0.50475000
    49  H          0.84574900       0.71035200       0.52829500
    50  H          0.15425100       0.21035200       0.47170500
    51  H          0.82459600       0.43864600       0.50866200
    52  H          0.17540400       0.93864600       0.49133800
    53  C          0.73975000       0.68101500       0.46425000
    54  C          0.26025000       0.18101500       0.53575000
    55  H          0.70624000       0.64036800       0.48884400
    56  H          0.29376000       0.14036800       0.51115600
    57  N          0.70655000       0.55241300       0.41265000
    58  N          0.29345000       0.05241300       0.58735000
    59  H          0.71632000       0.39237300       0.41841100
    60  H          0.28368000       0.89237300       0.58158900
    61  H          0.72934100       0.60616600       0.38677900
    62  H          0.27065900       0.10616600       0.61322100
    63  H          0.65282900       0.57760300       0.39989100
    64  H          0.34717100       0.07760300       0.60010900
    65  C          0.97986000       0.62871600       0.39615000
    66  C          0.02014000       0.12871600       0.60385000
    67  H          0.01466600       0.63495000       0.37366500
    68  H          0.98533400       0.13495000       0.62633500
    69  C          0.88356000       0.42731600       0.42815000
    70  C          0.11644000       0.92731600       0.57185000
    71  H          0.85207500       0.28750800       0.42742900
    72  H          0.14792500       0.78750800       0.57257100
    73  O          0.71476000       0.02771600       0.40635000
    74  O          0.28524000       0.52771600       0.59365000
    75  C          0.73096000       0.95011700       0.45296000
    76  C          0.26904000       0.45011700       0.54704000
    77  C          0.93396000       0.43731700       0.39455000
    78  C          0.06604000       0.93731700       0.60545000
    79  H          0.93524700       0.30688100       0.37036400
    80  H          0.06475300       0.80688100       0.62963600
    81  C          0.87855000       0.61811400       0.46275000
    82  C          0.12145000       0.11811400       0.53725000
    83  O          0.74468000       0.07551600       0.49566000
    84  O          0.25532000       0.57551600       0.50434000
    85  C          0.92635000       0.81491500       0.46225000
    86  C          0.07365000       0.31491500       0.53775000
    87  H          0.92385600       0.95084200       0.48451000
    88  H          0.07614400       0.45084200       0.51549000
    89  C          0.97646000       0.81831800       0.43075000
    90  C          0.02354000       0.31831800       0.56925000
    91  H          0.00995200       0.95390000       0.43234100
    92  H         -0.00995200       0.45390000       0.56765900
    93  C          0.88806000       0.35431700       0.68285000
    94  C          0.11194000       0.85431700       0.31715000
    95  C          0.71087000       0.46801900       0.61076000
    96  C          0.28913000       0.96801900       0.38924000
    97  C          0.97206000       0.69281800       0.71245000
    98  C          0.02794000       0.19281800       0.28755000
    99  H         -0.00399600       0.83201900       0.70254200
   100  H          0.00399600       0.33201900       0.29745800
   101  C          0.74526000       0.22991600       0.63006000
   102  C          0.25474000       0.72991600       0.36994000
   103  H          0.73602800       0.20050600       0.66678500
   104  H          0.26397200       0.70050600       0.33321500
   105  O          0.66056000       0.48121800       0.56556000
   106  O          0.33944000      -0.01878200       0.43444000
   107  C          0.92146000       0.55771700       0.67025000
   108  C          0.07854000       0.05771700       0.32975000
   109  H          0.91012300       0.60724500       0.63243000
   110  H          0.08987700       0.10724500       0.36757000
   111  C          0.83466000       0.20871700       0.63965000
   112  C          0.16534000       0.70871700       0.36035000
   113  H          0.84954800       0.03817000       0.64817000
   114  H          0.15045200       0.53817000       0.35183000
   115  H          0.84501600       0.24716200       0.60404600
   116  H          0.15498400       0.74716200       0.39595400
   117  C          0.90457000       0.29120000       0.73965000
   118  C          0.09543000       0.79120000       0.26035000
   119  H          0.88132000       0.15030200       0.74936200
   120  H          0.11868000       0.65030200       0.25063800
   121  O          0.73998000       0.64120000       0.64196000
   122  O          0.26002000       0.14120000       0.35804000
   123  C          0.95258000       0.42820000       0.77996000
   124  C          0.04742000       0.92820000       0.22004000
   125  H          0.96207400       0.38385300       0.81786100
   126  H          0.03792600       0.88385300       0.18213900
   127  C          0.98888000       0.63620000       0.76696000
   128  C          0.01112000       0.13620000       0.23304000
   129  H          0.02356400       0.73259900       0.79520200
   130  H          0.97643600       0.23259900       0.20479800
   131  N          0.70436000       0.04411700       0.59356000
   132  N          0.29564000       0.54411700       0.40644000
   133  H          0.72215200       0.03787400       0.56314700
   134  H          0.27784800       0.53787400       0.43685300
   135  H          0.65094300       0.07512800       0.58240500
   136  H          0.34905700       0.57512800       0.41759500
   137  H          0.71361100       0.90051000       0.61170300
   138  H          0.28638900       0.40051000       0.38829700
   139  C          0.38216000       0.61471800       0.84665000
   140  C          0.61784000       0.11471800       0.15335000
   141  H          0.41366700       0.75399300       0.84718400
   142  H          0.58633300       0.25399300       0.15281600
   143  C          0.26596000       0.38571600       0.79905000
   144  C          0.73404000       0.88571600       0.20095000
   145  C          0.21727000       0.33561800       0.69736000
   146  C          0.78273000       0.83561800       0.30264000
   147  C          0.29397000       0.21371800       0.83926000
   148  C          0.70603000       0.71371800       0.16074000
   149  H          0.26554300       0.06634200       0.83628000
   150  H          0.73445700       0.56634200       0.16372000
   151  O          0.21989000       0.53311700       0.67416000
   152  O          0.78011000       0.03311700       0.32584000
   153  H          0.25217900       0.52387500       0.65549900
   154  H          0.74782100       0.02387500       0.34450100
   155  C          0.19277000       0.35641800       0.74926000
   156  C          0.80723000       0.85641800       0.25074000
   157  H          0.16118300       0.50838600       0.74585000
   158  H          0.83881700       0.00838600       0.25415000
   159  C          0.31187000       0.58581700       0.80285000
   160  C          0.68813000       0.08581700       0.19715000
   161  H          0.29569100       0.70766300       0.77522700
   162  H          0.70430900       0.20766300       0.22477300
   163  C          0.36097000       0.24621800       0.88326000
   164  C          0.63903000       0.74621800       0.11674000
   165  H          0.37613300       0.12483600       0.91102700
   166  H          0.62386700       0.62483600       0.08897300
   167  C          0.48287000       0.48120000       0.93475000
   168  C          0.51713000      -0.01880000       0.06525000
   169  H          0.47914800       0.38179100       0.96660300
   170  H          0.52085200       0.88179100       0.03339700
   171  H          0.48679900       0.65089000       0.94688800
   172  H          0.51320100       0.15089000       0.05311200
   173  O          0.23716000       0.15501500       0.68325000
   174  O          0.76284000       0.65501500       0.31675000
   175  C          0.40747000       0.45121700       0.88865000
   176  C          0.59253000       0.95121700       0.11135000
   177  C          0.13818000       0.15320000       0.75357000
   178  C          0.86182000       0.65320000       0.24643000
   179  H          0.16594100      -0.00044000       0.75479000
   180  H          0.83405900       0.49956000       0.24521000
   181  H          0.09030800       0.15557000       0.72090500
   182  H          0.90969200       0.65557000       0.27909500
   183  H          0.12245200       0.17229400       0.78747400
   184  H          0.87754800       0.67229400       0.21252600
   185  C          0.56139000       0.15520000       0.91216000
   186  C          0.43861000       0.65520000       0.08784000
   187  H          0.55371200       0.06619200       0.94383500
   188  H          0.44628800       0.56619200       0.05616500
   189  H          0.61300300       0.11191100       0.90747300
   190  H          0.38699700       0.61191100       0.09252700
   191  H          0.51850400       0.11277700       0.87817800
   192  H          0.48149600       0.61277700       0.12182200
   193  C          0.55917000       0.41520000       0.92246000
   194  C          0.44083000       0.91520000       0.07754000
   195  H          0.56141000       0.50370600       0.88834500
   196  H          0.43859000       0.00370600       0.11165500
   197  C          0.62938000       0.49030000       0.97117000
   198  C          0.37062000      -0.00970000       0.02883000
   199  H          0.62848800       0.66474200       0.97576500
   200  H          0.37151200       0.16474200       0.02423500
   201  H          0.67907800       0.44273300       0.96395700
   202  H          0.32092200       0.94273300       0.03604300
   203  H          0.62582400       0.41075800       0.00508200
   204  H          0.37417600       0.91075800      -0.00508200
   205  O          0.72851000       0.46820000       0.76667000
   206  O          0.27149000       0.96820000       0.23333000
   207  C          0.95088000       0.53420000       0.93036000
   208  C          0.04912000       0.03420000       0.06964000
   209  H          0.96658000       0.38752600       0.94993800
   210  H          0.03342000       0.88752600       0.05006200
   211  C          0.00698000       0.71031900       0.93386000
   212  C         -0.00698000       0.21031900       0.06614000
   213  C          0.84848000       0.77520000       0.86847000
   214  C          0.15152000       0.27520000       0.13153000
   215  C          0.98188000       0.91220000       0.90306000
   216  C          0.01812000       0.41220000       0.09694000
   217  H          0.02003200       0.03288900       0.90305000
   218  H          0.97996800       0.53288900       0.09695000
   219  C          0.17011200       0.71730000       0.89868000
   220  C          0.82988800       0.21730000       0.10132000
   221  H          0.12515900       0.81549300       0.87682800
   222  H          0.87484100       0.31549300       0.12317200
   223  H          0.19313800       0.63017200       0.87324300
   224  H          0.80686200       0.13017200       0.12675700
   225  H          0.21077300       0.82115900       0.92308300
   226  H          0.78922700       0.32115900       0.07691700
   227  C          0.87248000       0.56511900       0.89926000
   228  C          0.12752000       0.06511900       0.10074000
   229  H          0.83439700       0.44284600       0.89863200
   230  H          0.16560300       0.94284600       0.10136800
   231  C          0.76349000       0.80130000       0.82968000
   232  C          0.23651000       0.30130000       0.17032000
   233  H          0.75359500      -0.02418000       0.82081800
   234  H          0.24640500       0.47582000       0.17918200
   235  C          0.09308000       0.66730000       0.96647000
   236  C          0.90692000       0.16730000       0.03353000
   237  H          0.09497300       0.56822200      -0.00048400
   238  H          0.90502700       0.06822200       0.00048400
   239  H          0.11844200       0.82361800       0.97982500
   240  H          0.88155800       0.32361800       0.02017500
   241  C          0.14129000       0.54130000       0.93307000
   242  C          0.85871000       0.04130000       0.06693000
   243  H          0.10858700       0.41211900       0.90890200
   244  H          0.89141300       0.91211900       0.09109800
   245  C          0.90378000       0.95020000       0.87177000
   246  C          0.09622000       0.45020000       0.12823000
   247  H          0.88845500       0.09812400       0.85248000
   248  H          0.11154500       0.59812400       0.14752000
   249  O          0.77859000       0.78720000       0.74237000
   250  O          0.22141000       0.28720000       0.25763000
   251  H          0.77274100       0.70476300       0.71338300
   252  H          0.22725900       0.20476300       0.28661700
   253  C          0.75579000       0.67120000       0.77608000
   254  C          0.24421000       0.17120000       0.22392000
   255  C          0.70249000       0.71640000       0.85709000
   256  C          0.29751000       0.21640000       0.14291000
   257  H          0.71072300       0.54513200       0.86617000
   258  H          0.28927700       0.04513200       0.13383000
   259  H          0.64853600       0.74019000       0.83129500
   260  H          0.35146400       0.24019000       0.16870500
   261  H          0.70828300       0.80871400       0.89116200
   262  H          0.29171700       0.30871400       0.10883800
   263  C          0.21561100       0.43540000       0.97379000
   264  C          0.78438900       0.93540000       0.02621000
   265  H          0.23792300       0.31191100       0.95470800
   266  H          0.76207700       0.81191100       0.04529200
   267  H          0.20189800       0.36147100       0.00501400
   268  H          0.79810200       0.86147100      -0.00501400
   269  H          0.25515600       0.56221200       0.98757900
   270  H          0.74484400       0.06221200       0.01242100
