data_BOVXOB01
_symmetry_space_group_name_H-M    'P1'
_symmetry_Int_Tables_number       1
loop_
_symmetry_equiv_pos_site_id
_symmetry_equiv_pos_as_xyz
1 x,y,z
_cell_length_a                   6.36193
_cell_length_b                   9.12834
_cell_length_c                   10.58454
_cell_angle_alpha                94.93601
_cell_angle_beta                 107.39701
_cell_angle_gamma                106.20201
loop_
_atom_site_label
_atom_site_type_symbol
_atom_site_fract_x
_atom_site_fract_y
_atom_site_fract_z
     1  F          0.39699120       0.48772900       0.74366800
     2  F          0.60300880       0.51227100       0.25633200
     3  F          0.79457860       0.05941800       0.45400800
     4  F          0.20542140       0.94058200       0.54599200
     5  O          0.28538150       0.74462100       0.81243900
     6  O          0.71461850       0.25537900       0.18756100
     7  F          0.48231880       0.20469900       0.45859800
     8  F          0.51768120       0.79530100       0.54140200
     9  C          0.01371190       0.50356120       0.67473100
    10  C         -0.01371190       0.49643880       0.32526900
    11  O          0.90632850       0.71748100       0.73027800
    12  O          0.09367150       0.28251900       0.26972200
    13  C          0.10132000       0.27318130       0.60114120
    14  C          0.89868000       0.72681870       0.39885880
    15  H          0.21190000       0.22130000       0.60180000
    16  H          0.78810000       0.77870000       0.39820000
    17  C          0.77893810       0.42674130       0.60051110
    18  C          0.22106190       0.57325870       0.39948890
    19  H          0.66710000       0.47760000       0.59930000
    20  H          0.33290000       0.52240000       0.40070000
    21  C          0.08572000       0.66815130       0.74760110
    22  C          0.91428000       0.33184870       0.25239890
    23  C          0.86918000       0.20266130       0.52831110
    24  C          0.13082000       0.79733870       0.47168890
    25  C          0.70878000       0.27805130       0.52927110
    26  C          0.29122000       0.72194870       0.47072890
    27  C          0.16875190       0.42245130       0.67360110
    28  C          0.83124810       0.57754870       0.32639890
    29  H          0.95560000       0.82830000       0.77530000
    30  H          0.04440000       0.17170000       0.22470000
    31  C          0.04102000       0.30443130       0.94763110
    32  C          0.95898000       0.69556870       0.05236890
    33  N         -0.01406180       0.00177110       0.83417100
    34  N          0.01406180      -0.00177110       0.16582900
    35  C          0.82158000       0.20124130       0.86968110
    36  C          0.17842000       0.79875870       0.13031890
    37  H          0.68760000       0.23320000       0.85370000
    38  H          0.31240000       0.76680000       0.14630000
    39  C          0.08074190       0.46470130       0.00911110
    40  C          0.91925810       0.53529870      -0.00911110
    41  C          0.23062000       0.24984130       0.96804110
    42  C          0.76938000       0.75015870       0.03195890
    43  H          0.38230000       0.31520000       0.02160000
    44  H          0.61770000       0.68480000       0.97840000
    45  C          0.19552000       0.09952130       0.90954110
    46  C          0.80448000       0.90047870       0.09045890
    47  H          0.32640000       0.06420000       0.92360000
    48  H          0.67360000       0.93580000       0.07640000
    49  C          0.80148000       0.05193130       0.81592110
    50  C          0.19852000       0.94806870       0.18407890
    51  H          0.65150000      -0.01750000       0.76420000
    52  H          0.34850000       0.01750000       0.23580000
    53  H          0.24230000       0.52520000       0.06951700
    54  H          0.75770000       0.47480000       0.93048300
