data_BOVXOB
_symmetry_space_group_name_H-M    'P1'
_symmetry_Int_Tables_number       1
loop_
_symmetry_equiv_pos_site_id
_symmetry_equiv_pos_as_xyz
1 x,y,z
_cell_length_a                   6.809513
_cell_length_b                   7.232414
_cell_length_c                   22.5095
_cell_angle_alpha                90.0
_cell_angle_beta                 95.7337
_cell_angle_gamma                90.0
loop_
_atom_site_label
_atom_site_type_symbol
_atom_site_fract_x
_atom_site_fract_y
_atom_site_fract_z
     1  F          0.32077160       0.87677840       0.08588500
     2  F          0.17922840       0.37677840       0.41411500
     3  F          0.67922840       0.12322160       0.91411500
     4  F          0.82077160       0.62322160       0.58588500
     5  F          0.50859170       0.15011160       0.30858500
     6  F         -0.00859170       0.65011160       0.19141500
     7  F          0.49140830       0.84988840       0.69141500
     8  F          0.00859170       0.34988840       0.80858500
     9  F          0.77573160       0.95704830       0.25361500
    10  F          0.72426840       0.45704830       0.24638500
    11  F          0.22426840       0.04295170       0.74638500
    12  F          0.27573160       0.54295170       0.75361500
    13  O          0.94218000      -0.01882000       0.09677600
    14  O          0.55782000       0.48118000       0.40322400
    15  O          0.05782000       0.01882000       0.90322400
    16  O          0.44218000       0.51882000       0.59677600
    17  O          0.93728000       0.22925190       0.15610600
    18  O          0.56272000       0.72925190       0.34389400
    19  O          0.06272000       0.77074810       0.84389400
    20  O          0.43728000       0.27074810       0.65610600
    21  C          0.45693000       0.08163000       0.25341800
    22  C          0.04307000       0.58163000       0.24658200
    23  C          0.54307000       0.91837000       0.74658200
    24  C          0.95693000       0.41837000       0.75341800
    25  C          0.21833000       0.04222000       0.16819800
    26  C          0.28167000       0.54222000       0.33180200
    27  C          0.78167000       0.95778000       0.83180200
    28  C          0.71833000       0.45778000       0.66819800
    29  C          0.54743000       0.90967000       0.16951800
    30  C          0.95257000       0.40967000       0.33048200
    31  C          0.45257000       0.09033000       0.83048200
    32  C          0.04743000       0.59033000       0.66951800
    33  H          0.64120000       0.84000000       0.15040000
    34  H          0.85880000       0.34000000       0.34960000
    35  H          0.35880000       0.16000000       0.84960000
    36  H          0.14120000       0.66000000       0.65040000
    37  C          0.35993000       0.94198000       0.14183800
    38  C          0.14007000       0.44198000       0.35816200
    39  C          0.64007000       0.05802000       0.85816200
    40  C          0.85993000       0.55802000       0.64183800
    41  C          0.27143000       0.11333000       0.22517800
    42  C          0.22857000       0.61333000       0.27482200
    43  C          0.72857000       0.88667000       0.77482200
    44  C          0.77143000       0.38667000       0.72517800
    45  H          0.17890000       0.18390000       0.24450000
    46  H          0.32110000       0.68390000       0.25550000
    47  H          0.82110000       0.81610000       0.75550000
    48  H          0.67890000       0.31610000       0.74450000
    49  C          0.59313000      -0.01833000       0.22540800
    50  C          0.90687000       0.48167000       0.27459200
    51  C          0.40687000       0.01833000       0.77459200
    52  C          0.09313000       0.51833000       0.72540800
    53  C          0.01783000       0.08093000       0.13637800
    54  C          0.48217000       0.58093000       0.36362200
    55  C         -0.01783000       0.91907000       0.86362200
    56  C          0.51783000       0.41907000       0.63637800
    57  H          0.81250000       0.26540000       0.13041400
    58  H          0.68750000       0.76540000       0.36958600
    59  H          0.18750000       0.73460000       0.86958600
    60  H          0.31250000       0.23460000       0.63041400
    61  N          0.60672000       0.31022000       0.09618700
    62  N          0.89328000       0.81022000       0.40381300
    63  N          0.39328000       0.68978000       0.90381300
    64  N          0.10672000       0.18978000       0.59618700
    65  C          0.24343000       0.38523000       0.03133800
    66  C          0.25657000       0.88523000       0.46866200
    67  C          0.75657000       0.61477000       0.96866200
    68  C          0.74343000       0.11477000       0.53133800
    69  C          0.29133000       0.45803000       0.08851800
    70  C          0.20867000       0.95803000       0.41148200
    71  C          0.70867000       0.54197000       0.91148200
    72  C          0.79133000       0.04197000       0.58851800
    73  H          0.19990000       0.53440000       0.10630000
    74  H          0.30010000       0.03440000       0.39370000
    75  H          0.80010000       0.46560000       0.89370000
    76  H          0.69990000       0.96560000       0.60630000
    77  C          0.05703000       0.42803000      -0.00463800
    78  C          0.44297000       0.92803000       0.50463800
    79  C          0.94297000       0.57197000       0.00463800
    80  C          0.55703000       0.07197000       0.49536200
    81  C          0.47213000       0.41803000       0.11875800
    82  C          0.02787000       0.91803000       0.38124200
    83  C          0.52787000       0.58197000       0.88124200
    84  C          0.97213000       0.08197000       0.61875800
    85  H          0.50290000       0.46920000       0.15740000
    86  H         -0.00290000       0.96920000       0.34260000
    87  H          0.49710000       0.53080000       0.84260000
    88  H          0.00290000       0.03080000       0.65740000
    89  C          0.38243000       0.27073000       0.00875800
    90  C          0.11757000       0.77073000       0.49124200
    91  C          0.61757000       0.72927000       0.99124200
    92  C          0.88243000       0.22927000       0.50875800
    93  H          0.35470000       0.21520000       0.97060000
    94  H          0.14530000       0.71520000       0.52940000
    95  H          0.64530000       0.78480000       0.02940000
    96  H          0.85470000       0.28480000       0.47060000
    97  C          0.56093000       0.23773000       0.04197900
    98  C          0.93907000       0.73773000       0.45802100
    99  C          0.43907000       0.76227000       0.95802100
   100  C          0.06093000       0.26227000       0.54197900
   101  H          0.65460000       0.16040000       0.02560000
   102  H          0.84540000       0.66040000       0.47440000
   103  H          0.34540000       0.83960000       0.97440000
   104  H          0.15460000       0.33960000       0.52560000
   105  H          0.02130000       0.34030000       0.96291000
   106  H          0.47870000       0.84030000       0.53709000
   107  H         -0.02130000       0.65970000       0.03709000
   108  H          0.52130000       0.15970000       0.46291000
