data_BOVYIW01
_symmetry_space_group_name_H-M    'P1'
_symmetry_Int_Tables_number       1
loop_
_symmetry_equiv_pos_site_id
_symmetry_equiv_pos_as_xyz
1 x,y,z
_cell_length_a                   6.99809
_cell_length_b                   7.26801
_cell_length_c                   12.311016
_cell_angle_alpha                89.5176
_cell_angle_beta                 78.0957
_cell_angle_gamma                64.7308
loop_
_atom_site_label
_atom_site_type_symbol
_atom_site_fract_x
_atom_site_fract_y
_atom_site_fract_z
     1  C          0.45482000       0.75542000       0.40496100
     2  C          0.54518000       0.24458000       0.59503900
     3  H          0.56760000       0.75240000       0.34580000
     4  H          0.43240000       0.24760000       0.65420000
     5  C          0.35872000       0.62770190       0.39380100
     6  C          0.64128000       0.37229810       0.60619900
     7  H          0.40750000       0.53620000       0.32870000
     8  H          0.59250000       0.46380000       0.67130000
     9  C          0.18902000       0.63412190       0.47905100
    10  C          0.81098000       0.36587810       0.52094900
    11  C          0.12612000       0.77052000       0.57337110
    12  C          0.87388000       0.22948000       0.42662890
    13  H          0.01020000       0.78080000       0.63270000
    14  H          0.98980000       0.21920000       0.36730000
    15  C          0.23362000       0.89012000       0.57977110
    16  C          0.76638000       0.10988000       0.42022890
    17  H          0.19270000      -0.02070000       0.64500000
    18  H          0.80730000       0.02070000       0.35500000
    19  C          0.08942000       0.49619190       0.46537100
    20  C          0.91058000       0.50380810       0.53462900
    21  N          0.39463170       0.88330160       0.49607900
    22  N          0.60536830       0.11669840       0.50392100
    23  H          0.16430000       0.39230000       0.40091400
    24  H          0.83570000       0.60770000       0.59908600
    25  C          0.18239180       0.24443170       0.15098900
    26  C          0.81760820       0.75556830       0.84901100
    27  C          0.04272000       0.16602190       0.13091100
    28  C          0.95728000       0.83397810       0.86908900
    29  C          0.83598000       0.28602000       0.11673110
    30  C          0.16402000       0.71398000       0.88326890
    31  H          0.74460000       0.22650000       0.10350000
    32  H          0.25540000       0.77350000       0.89650000
    33  C          0.76568000       0.49672000       0.12234100
    34  C          0.23432000       0.50328000       0.87765900
    35  H          0.62400000       0.58220000       0.11300000
    36  H          0.37600000       0.41780000       0.88700000
    37  C          0.89878000       0.58379190       0.14140100
    38  C          0.10122000       0.41620810       0.85859900
    39  H          0.85090000       0.72760000       0.14500000
    40  H          0.14910000       0.27240000       0.85500000
    41  C          0.10307190       0.45516180       0.15497100
    42  C          0.89692810       0.54483820       0.84502900
    43  C          0.40439190       0.11234180       0.17228100
    44  C          0.59560810       0.88765820       0.82771900
    45  O          0.55040140      -0.00270140       0.08907700
    46  O          0.44959860       0.00270140       0.91092300
    47  O          0.43434150       0.12278150       0.26607800
    48  O          0.56565850       0.87721850       0.73392200
    49  F          0.23757130       0.53718120       0.17121700
    50  F          0.76242870       0.46281880       0.82878300
    51  F          0.11290150       0.96089880       0.12857800
    52  F          0.88709850       0.03910120       0.87142200
    53  H          0.50000000      -0.00000000       0.00000000
