data_BOVYES
_symmetry_space_group_name_H-M    'P1'
_symmetry_Int_Tables_number       1
loop_
_symmetry_equiv_pos_site_id
_symmetry_equiv_pos_as_xyz
1 x,y,z
_cell_length_a                   3.76847
_cell_length_b                   11.4882
_cell_length_c                   25.1995
_cell_angle_alpha                89.18612
_cell_angle_beta                 89.3388
_cell_angle_gamma                82.8728
loop_
_atom_site_label
_atom_site_type_symbol
_atom_site_fract_x
_atom_site_fract_y
_atom_site_fract_z
     1  F          0.31232000       0.81337700       0.29165300
     2  F          0.68768000       0.18662300       0.70834700
     3  O         -0.01097000       0.89572800       0.08125400
     4  O          0.01097000       0.10427200       0.91874600
     5  F          0.94002000       0.66533700       0.10504300
     6  F          0.05998000       0.33466300       0.89495700
     7  O          0.89712000       0.01625800       0.15057400
     8  O          0.10288000       0.98374200       0.84942600
     9  C          0.74913000       0.82471100       0.16253500
    10  C          0.25087000       0.17528900       0.83746500
    11  C          0.58553000       0.85882110       0.21089500
    12  C          0.41447000       0.14117890       0.78910500
    13  H          0.55250000       0.93930000       0.22030000
    14  H          0.44750000       0.06070000       0.77970000
    15  C          0.67123000       0.62233110       0.18565600
    16  C          0.32877000       0.37766890       0.81434400
    17  H          0.70280000       0.54170000       0.17650000
    18  H          0.29720000       0.45830000       0.82350000
    19  C          0.88993000       0.91527110       0.12654500
    20  C          0.11007000       0.08472890       0.87345500
    21  C          0.78373000       0.70548110       0.15094500
    22  C          0.21627000       0.29451890       0.84905500
    23  C          0.51223000       0.65734120       0.23381500
    24  C          0.48777000       0.34265880       0.76618500
    25  H          0.43390000       0.60190000       0.25820000
    26  H          0.56610000       0.39810000       0.74180000
    27  C          0.47213000       0.77560120       0.24493500
    28  C          0.52787000       0.22439880       0.75506500
    29  H          0.00160000       0.07520000       0.12681000
    30  H         -0.00160000       0.92480000       0.87319000
    31  F          0.35482000       0.37658700       0.23529300
    32  F          0.64518000       0.62341300       0.76470700
    33  F         -0.01688000       0.04636700       0.37250300
    34  F          0.01688000       0.95363300       0.62749700
    35  O          0.10072000       0.50008800       0.32089400
    36  O          0.89928000       0.49991200       0.67910600
    37  O          0.32053000       0.43413800       0.39974400
    38  O          0.67947000       0.56586200       0.60025600
    39  C          0.64683000       0.23080110       0.35928500
    40  C          0.35317000       0.76919890       0.64071500
    41  H          0.63820000       0.24190000       0.39660000
    42  H          0.36180000       0.75810000       0.60340000
    43  C          0.50583000       0.29597110       0.27070500
    44  C          0.49417000       0.70402890       0.72929500
    45  C          0.48133000       0.31759100       0.32499500
    46  C          0.51867000       0.68240900       0.67500500
    47  C          0.68053000       0.19308110       0.25009500
    48  C          0.31947000       0.80691890       0.74990500
    49  H          0.68860000       0.18090000       0.21290000
    50  H          0.31140000       0.81910000       0.78710000
    51  C          0.28153000       0.42761100       0.34781500
    52  C          0.71847000       0.57238900       0.65218500
    53  C          0.84393000       0.10781110       0.28455500
    54  C          0.15607000       0.89218890       0.71544500
    55  H          0.96720000       0.03670000       0.27140000
    56  H          0.03280000       0.96330000       0.72860000
    57  C          0.82233000       0.12904110       0.33824500
    58  C          0.17767000       0.87095890       0.66175500
    59  H          0.18770000       0.50320000       0.41391000
    60  H          0.81230000       0.49680000       0.58609000
    61  N          0.15573000       0.17310900       0.09282400
    62  N          0.84427000       0.82689100       0.90717600
    63  C          0.39573000       0.35139100       0.02976500
    64  C          0.60427000       0.64860900       0.97023500
    65  C          0.26943000       0.37311110       0.08179500
    66  C          0.73057000       0.62688890       0.91820500
    67  H          0.26300000       0.44910000       0.09640000
    68  H          0.73700000       0.55090000       0.90360000
    69  C          0.40283000       0.23713110       0.01102500
    70  C          0.59717000       0.76286890       0.98897500
    71  H          0.49210000       0.21810000       0.97640000
    72  H          0.50790000       0.78190000       0.02360000
    73  C          0.15443000       0.28260110       0.11155500
    74  C          0.84557000       0.71739890       0.88844500
    75  H          0.07090000       0.29820000       0.14680000
    76  H          0.92910000       0.70180000       0.85320000
    77  C          0.51493000       0.44277110      -0.00528500
    78  C          0.48507000       0.55722890       0.00528500
    79  C          0.27833000       0.15151110       0.04344500
    80  C          0.72167000       0.84848890       0.95655500
    81  H          0.28040000       0.07460000       0.02990000
    82  H          0.71960000       0.92540000       0.97010000
    83  H          0.61940000       0.41281400       0.96184000
    84  H          0.38060000       0.58718600       0.03816000
    85  N         -0.01893000       0.63042900       0.43492400
    86  N          0.01893000       0.36957100       0.56507600
    87  C          0.80607000       0.70305110       0.39908500
    88  C          0.19393000       0.29694890       0.60091500
    89  H          0.79040000       0.67690000       0.36370000
    90  H          0.20960000       0.32310000       0.63630000
    91  C          0.49837000       0.97445110       0.47651500
    92  C          0.50163000       0.02554890       0.52348500
    93  C         -0.00103000       0.66859110       0.48498500
    94  C          0.00103000       0.33140890       0.51501500
    95  H          0.12170000       0.61760000       0.51060000
    96  H          0.87830000       0.38240000       0.48940000
    97  C          0.64717000       0.81488110       0.41168500
    98  C          0.35283000       0.18511890       0.58831500
    99  H          0.52560000       0.86370000       0.38520000
   100  H          0.47440000       0.13630000       0.61480000
   101  C          0.66657000       0.85562100       0.46360500
   102  C          0.33343000       0.14437900       0.53639500
   103  C          0.84697000       0.77875110       0.50087500
   104  C          0.15303000       0.22124890       0.49912500
   105  H          0.86490000       0.80200000       0.53670000
   106  H          0.13510000       0.19800000       0.46330000
   107  H          0.37750000       0.01341500       0.44637000
   108  H          0.62250000       0.98658500       0.55363000
