data_BOWJII01
_symmetry_space_group_name_H-M    'P1'
_symmetry_Int_Tables_number       1
loop_
_symmetry_equiv_pos_site_id
_symmetry_equiv_pos_as_xyz
1 x,y,z
_cell_length_a                   6.87
_cell_length_b                   8.954
_cell_length_c                   10.166
_cell_angle_alpha                70.5
_cell_angle_beta                 78.7
_cell_angle_gamma                72.38
loop_
_atom_site_label
_atom_site_type_symbol
_atom_site_fract_x
_atom_site_fract_y
_atom_site_fract_z
     1  F          0.32506140       0.57978110       0.72940100
     2  F          0.67493860       0.42021890       0.27059900
     3  F          0.38437130       0.40777110      -0.00103100
     4  F          0.61562870       0.59222890       0.00103100
     5  F          0.16843140       0.18983110       0.14394800
     6  F          0.83156860       0.81016890       0.85605200
     7  C          0.24752000       0.38343160       0.93605140
     8  C          0.75248000       0.61656840       0.06394860
     9  C          0.96474810       0.32983150       0.80784140
    10  C          0.03525190       0.67016850       0.19215860
    11  O          0.78303850       0.37749120       0.61499100
    12  O          0.21696150       0.62250880       0.38500900
    13  O          0.72743850       0.18469120       0.81570100
    14  O          0.27256150       0.81530880       0.18429900
    15  C          0.07572000       0.44467150       0.73208140
    16  C          0.92428000       0.55532850       0.26791860
    17  H          0.05540000       0.50450000       0.63700000
    18  H          0.94460000       0.49550000       0.36300000
    19  C          0.13612000       0.27033160       0.00919140
    20  C          0.86388000       0.72966840      -0.00919140
    21  C          0.21542000       0.46946160       0.79820150
    22  C          0.78458000       0.53053840       0.20179850
    23  C         -0.00552000       0.24235160       0.94733130
    24  C          0.00552000       0.75764840       0.05266870
    25  H          0.91830000       0.16460000      -0.00110000
    26  H          0.08170000       0.83540000       0.00110000
    27  C          0.81446810       0.30038160       0.73612130
    28  C          0.18553190       0.69961840       0.26387870
    29  H          0.62460000       0.16030000       0.76730000
    30  H          0.37540000       0.83970000       0.23270000
    31  C          0.24038190       0.98053840       0.68922130
    32  C          0.75961810       0.01946160       0.31077870
    33  H          0.17420000       0.89520000       0.73690000
    34  H          0.82580000       0.10480000       0.26310000
    35  N          0.47989160       0.12614130       0.69021120
    36  N          0.52010840       0.87385870       0.30978880
    37  C          0.19515180       0.08010150       0.55400130
    38  C          0.80484820       0.91989850       0.44599870
    39  C          0.29874190       0.20272160       0.49017130
    40  C          0.70125810       0.79727840       0.50982870
    41  H          0.27350000       0.27300000       0.39830000
    42  H          0.72650000       0.72700000       0.60170000
    43  C          0.38160190       0.00723160       0.75266130
    44  C          0.61839810      -0.00723160       0.24733870
    45  H          0.41070000       0.93870000       0.84440000
    46  H          0.58930000       0.06130000       0.15560000
    47  C          0.04442190       0.06193160       0.47983130
    48  C          0.95557810       0.93806840       0.52016870
    49  C          0.43832000       0.22172160       0.56094140
    50  C          0.56168000       0.77827840       0.43905860
    51  H          0.50710000       0.30590000       0.51590000
    52  H          0.49290000       0.69410000       0.48410000
    53  H          0.01330000       0.15120000       0.40220000
    54  H          0.98670000       0.84880000       0.59780000
