data_BOWJEE
_symmetry_space_group_name_H-M    'P1'
_symmetry_Int_Tables_number       1
loop_
_symmetry_equiv_pos_site_id
_symmetry_equiv_pos_as_xyz
1 x,y,z
_cell_length_a                   6.73578
_cell_length_b                   7.40829
_cell_length_c                   12.068215
_cell_angle_alpha                95.9097
_cell_angle_beta                 104.3707
_cell_angle_gamma                95.0147
loop_
_atom_site_label
_atom_site_type_symbol
_atom_site_fract_x
_atom_site_fract_y
_atom_site_fract_z
     1  H          0.16730000       0.08270000       0.59321900
     2  H          0.83270000       0.91730000       0.40678100
     3  N          0.12602000       0.53028000       0.33612130
     4  N          0.87398000       0.46972000       0.66387870
     5  C          0.22213000       0.38218000       0.50393150
     6  C          0.77787000       0.61782000       0.49606850
     7  H          0.30410000       0.38610000       0.58070000
     8  H          0.69590000       0.61390000       0.41930000
     9  C         -0.00663000       0.38267000       0.28388160
    10  C          0.00663000       0.61733000       0.71611840
    11  H          0.91370000       0.38310000       0.20700000
    12  H          0.08630000       0.61690000       0.79300000
    13  C          0.08523000       0.22718000       0.45145150
    14  C          0.91477000       0.77282000       0.54854850
    15  C          0.06843000       0.07327000       0.51758160
    16  C          0.93157000       0.92673000       0.48241840
    17  C          0.96887000       0.23038000       0.33820160
    18  C          0.03113000       0.76962000       0.66179840
    19  H          0.87350000       0.12800000       0.29890000
    20  H          0.12650000       0.87200000       0.70110000
    21  C          0.23873000       0.52948000       0.44458160
    22  C          0.76127000       0.47052000       0.55541840
    23  H          0.33290000       0.63390000       0.48160000
    24  H          0.66710000       0.36610000       0.51840000
    25  H          0.16350000       0.67850000       0.28530000
    26  H          0.83650000       0.32150000       0.71470000
    27  F          0.47330180       0.23477150       0.31825900
    28  F          0.52669820       0.76522850       0.68174100
    29  F          0.20402000       0.82256850       0.98217900
    30  F          0.79598000       0.17743150       0.01782100
    31  F          0.28222000       0.44954170       0.95969880
    32  F          0.71778000       0.55045830       0.04030120
    33  O          0.50172000       0.80648000       0.26703130
    34  O          0.49828000       0.19352000       0.73296870
    35  O          0.16022000       0.80658000       0.23229130
    36  O          0.83978000       0.19342000       0.76770870
    37  C          0.39853000       0.20152000       0.20182150
    38  C          0.60147000       0.79848000       0.79817850
    39  C          0.24523000       0.13553000       0.96670840
    40  C          0.75477000       0.86447000       0.03329160
    41  H          0.19470000       0.11260000       0.88520000
    42  H          0.80530000       0.88740000       0.11480000
    43  C          0.26223000      -0.00432000       0.03421150
    44  C          0.73777000       0.00432000       0.96578850
    45  C          0.38553000       0.34912000       0.14077170
    46  C          0.61447000       0.65088000       0.85922830
    47  H          0.42930000       0.47080000       0.17750000
    48  H          0.57070000       0.52920000       0.82250000
    49  C          0.33763000       0.02262000       0.15326150
    50  C          0.66237000       0.97738000       0.84673850
    51  C          0.34143000       0.86568000       0.22444150
    52  C          0.65857000       0.13432000       0.77555850
    53  C          0.30493000       0.30943000       0.02325170
    54  C          0.69507000       0.69057000       0.97674830
