data_BOYGED
_symmetry_space_group_name_H-M    'P1'
_symmetry_Int_Tables_number       1
loop_
_symmetry_equiv_pos_site_id
_symmetry_equiv_pos_as_xyz
1 x,y,z
_cell_length_a                   10.5052
_cell_length_b                   5.608113
_cell_length_c                   12.6553
_cell_angle_alpha                90.0
_cell_angle_beta                 98.0173
_cell_angle_gamma                90.0
loop_
_atom_site_label
_atom_site_type_symbol
_atom_site_fract_x
_atom_site_fract_y
_atom_site_fract_z
     1  S          0.60223600       0.43615110       0.19298500
     2  S          0.89776400       0.93615110       0.30701500
     3  S          0.39776400       0.56384890       0.80701500
     4  S          0.10223600       0.06384890       0.69298500
     5  F          0.48742140       0.29823000       0.13429120
     6  F          0.01257860       0.79823000       0.36570880
     7  F          0.51257860       0.70177000       0.86570880
     8  F         -0.01257860       0.20177000       0.63429120
     9  F          0.69762140       0.36763000       0.11390130
    10  F          0.80237860       0.86763000       0.38609870
    11  F          0.30237860       0.63237000       0.88609870
    12  F          0.19762140       0.13237000       0.61390130
    13  F          0.64210160       0.18203000       0.25929150
    14  F          0.85789840       0.68203000       0.24070850
    15  F          0.35789840       0.81797000       0.74070850
    16  F          0.14210160       0.31797000       0.75929150
    17  F          0.55469160       0.66443000       0.11477140
    18  F          0.94530840       0.16443000       0.38522860
    19  F          0.44530840       0.33557000       0.88522860
    20  F          0.05469160       0.83557000       0.61477140
    21  N          0.43272160       0.51133000       0.31096140
    22  N          0.06727840       0.01133000       0.18903860
    23  N          0.56727840       0.48867000       0.68903860
    24  N          0.93272160      -0.01133000       0.81096140
    25  C          0.34002000       0.35704000       0.32506180
    26  C          0.15998000       0.85704000       0.17493820
    27  C          0.65998000       0.64296000       0.67493820
    28  C          0.84002000       0.14296000       0.82506180
    29  H          0.32870000       0.22040000       0.28030000
    30  H          0.17130000       0.72040000       0.21970000
    31  H          0.67130000       0.77960000       0.71970000
    32  H          0.82870000       0.27960000       0.78030000
    33  C          0.26002000       0.38654000       0.40139190
    34  C          0.23998000       0.88654000       0.09860810
    35  C          0.73998000       0.61346000       0.59860810
    36  C          0.76002000       0.11346000       0.90139190
    37  H          0.19510000       0.27240000       0.40890000
    38  H          0.30490000       0.77240000       0.09110000
    39  H          0.80490000       0.72760000       0.59110000
    40  H          0.69510000       0.22760000       0.90890000
    41  C          0.27542000       0.58294000       0.46655190
    42  C          0.22458000       0.08294000       0.03344810
    43  C          0.72458000       0.41706000       0.53344810
    44  C          0.77542000       0.91706000       0.96655190
    45  H          0.22170000       0.60730000       0.52010000
    46  H          0.27830000       0.10730000       0.97990000
    47  H          0.77830000       0.39270000       0.47990000
    48  H          0.72170000       0.89270000       0.02010000
    49  C          0.37062160       0.74393000       0.45250140
    50  C          0.12937840       0.24393000       0.04749860
    51  C          0.62937840       0.25607000       0.54749860
    52  C          0.87062160       0.75607000       0.95250140
    53  H          0.38360000       0.88190000       0.49620000
    54  H          0.11640000       0.38190000       0.00380000
    55  H          0.61640000       0.11810000       0.50380000
    56  H          0.88360000       0.61810000      -0.00380000
    57  C          0.44675160       0.70233000       0.37429140
    58  C          0.05324840       0.20233000       0.12570860
    59  C          0.55324840       0.29767000       0.62570860
    60  C          0.94675160       0.79767000       0.87429140
    61  H          0.51210000       0.81440000       0.36500000
    62  H         -0.01210000       0.31440000       0.13500000
    63  H          0.48790000       0.18560000       0.63500000
    64  H          0.01210000       0.68560000       0.86500000
