data_BOYGIH
_symmetry_space_group_name_H-M    'P1'
_symmetry_Int_Tables_number       1
loop_
_symmetry_equiv_pos_site_id
_symmetry_equiv_pos_as_xyz
1 x,y,z
_cell_length_a                   20.53215
_cell_length_b                   11.0178
_cell_length_c                   7.4325
_cell_angle_alpha                90.0
_cell_angle_beta                 90.0
_cell_angle_gamma                90.0
loop_
_atom_site_label
_atom_site_type_symbol
_atom_site_fract_x
_atom_site_fract_y
_atom_site_fract_z
     1  S          0.40798300       0.62743500       0.02539800
     2  S          0.09201700       0.87256500       0.52539800
     3  S          0.59201700       0.62743500       0.47460200
     4  S          0.90798300       0.87256500       0.97460200
     5  S          0.59201700       0.37256500       0.97460200
     6  S          0.90798300       0.12743500       0.47460200
     7  S          0.40798300       0.37256500       0.52539800
     8  S          0.09201700       0.12743500       0.02539800
     9  F          0.39247800       0.68626190       0.20632000
    10  F          0.10752200       0.81373810       0.70632000
    11  F          0.60752200       0.68626190       0.29368000
    12  F          0.89247800       0.81373810       0.79368000
    13  F          0.60752200       0.31373810       0.79368000
    14  F          0.89247800       0.18626190       0.29368000
    15  F          0.39247800       0.31373810       0.70632000
    16  F          0.10752200       0.18626190       0.20632000
    17  F          0.48291700       0.62626130       0.05162000
    18  F          0.01708300       0.87373870       0.55162000
    19  F          0.51708300       0.62626130       0.44838000
    20  F          0.98291700       0.87373870       0.94838000
    21  F          0.51708300       0.37373870       0.94838000
    22  F          0.98291700       0.12626130       0.44838000
    23  F          0.48291700       0.37373870       0.55162000
    24  F          0.01708300       0.12626130       0.05162000
    25  F          0.41490900       0.76694160       0.94317000
    26  F          0.08509100       0.73305840       0.44317000
    27  F          0.58509100       0.76694160       0.55683000
    28  F          0.91490900       0.73305840       0.05683000
    29  F          0.58509100       0.23305840       0.05683000
    30  F          0.91490900       0.26694160       0.55683000
    31  F          0.41490900       0.23305840       0.44317000
    32  F          0.08509100       0.26694160       0.94317000
    33  F          0.40429800       0.49540170       0.13383000
    34  F          0.09570200       0.00459830       0.63383000
    35  F          0.59570200       0.49540170       0.36617000
    36  F          0.90429800       0.00459830       0.86617000
    37  F          0.59570200       0.50459830       0.86617000
    38  F          0.90429800      -0.00459830       0.36617000
    39  F          0.40429800       0.50459830       0.63383000
    40  F          0.09570200      -0.00459830       0.13383000
    41  N          0.28570100       0.63395160       0.01402000
    42  N          0.21429900       0.86604840       0.51402000
    43  N          0.71429900       0.63395160       0.48598000
    44  N          0.78570100       0.86604840      -0.01402000
    45  N          0.71429900       0.36604840      -0.01402000
    46  N          0.78570100       0.13395160       0.48598000
    47  N          0.28570100       0.36604840       0.51402000
    48  N          0.21429900       0.13395160       0.01402000
    49  C          0.24633120       0.72028190       0.07923000
    50  C          0.25366880       0.77971810       0.57923000
    51  C          0.75366880       0.72028190       0.42077000
    52  C          0.74633120       0.77971810       0.92077000
    53  C          0.75366880       0.27971810       0.92077000
    54  C          0.74633120       0.22028190       0.42077000
    55  C          0.24633120       0.27971810       0.57923000
    56  C          0.25366880       0.22028190       0.07923000
    57  H          0.26550000       0.78980000       0.13310000
    58  H          0.23450000       0.71020000       0.63310000
    59  H          0.73450000       0.78980000       0.36690000
    60  H          0.76550000       0.71020000       0.86690000
    61  H          0.73450000       0.21020000       0.86690000
    62  H          0.76550000       0.28980000       0.36690000
    63  H          0.26550000       0.21020000       0.63310000
    64  H          0.23450000       0.28980000       0.13310000
    65  C          0.17979120       0.71322000       0.07223000
    66  C          0.32020880       0.78678000       0.57223000
    67  C          0.82020880       0.71322000       0.42777000
    68  C          0.67979120       0.78678000       0.92777000
    69  C          0.82020880       0.28678000       0.92777000
    70  C          0.67979120       0.21322000       0.42777000
    71  C          0.17979120       0.28678000       0.57223000
    72  C          0.32020880       0.21322000       0.07223000
    73  H          0.15400000       0.77790000       0.11780000
    74  H          0.34600000       0.72210000       0.61780000
    75  H          0.84600000       0.77790000       0.38220000
    76  H          0.65400000       0.72210000       0.88220000
    77  H          0.84600000       0.22210000       0.88220000
    78  H          0.65400000       0.27790000       0.38220000
    79  H          0.15400000       0.22210000       0.61780000
    80  H          0.34600000       0.27790000       0.11780000
    81  C          0.15004120       0.61182000      -0.00153000
    82  C          0.34995880       0.88818000       0.49847000
    83  C          0.84995880       0.61182000       0.50153000
    84  C          0.65004120       0.88818000       0.00153000
    85  C          0.84995880       0.38818000       0.00153000
    86  C          0.65004120       0.11182000       0.50153000
    87  C          0.15004120       0.38818000       0.49847000
    88  C          0.34995880       0.11182000      -0.00153000
    89  C          0.07758140       0.59803000      -0.00624000
    90  C          0.42241860       0.90197000       0.49376000
    91  C          0.92241860       0.59803000       0.50624000
    92  C          0.57758140       0.90197000       0.00624000
    93  C          0.92241860       0.40197000       0.00624000
    94  C          0.57758140       0.09803000       0.50624000
    95  C          0.07758140       0.40197000       0.49376000
    96  C          0.42241860       0.09803000      -0.00624000
    97  H          0.05770000       0.65550000       0.07810000
    98  H          0.44230000       0.84450000       0.57810000
    99  H          0.94230000       0.65550000       0.42190000
   100  H          0.55770000       0.84450000       0.92190000
   101  H          0.94230000       0.34450000       0.92190000
   102  H          0.55770000       0.15550000       0.42190000
   103  H          0.05770000       0.34450000       0.57810000
   104  H          0.44230000       0.15550000       0.07810000
   105  H          0.06580000       0.51500000       0.02840000
   106  H          0.43420000       0.98500000       0.52840000
   107  H          0.93420000       0.51500000       0.47160000
   108  H          0.56580000       0.98500000       0.97160000
   109  H          0.93420000       0.48500000       0.97160000
   110  H          0.56580000       0.01500000       0.47160000
   111  H          0.06580000       0.48500000       0.52840000
   112  H          0.43420000       0.01500000       0.02840000
   113  H          0.06170000       0.61440000       0.87190000
   114  H          0.43830000       0.88560000       0.37190000
   115  H          0.93830000       0.61440000       0.62810000
   116  H          0.56170000       0.88560000       0.12810000
   117  H          0.93830000       0.38560000       0.12810000
   118  H          0.56170000       0.11440000       0.62810000
   119  H          0.06170000       0.38560000       0.37190000
   120  H          0.43830000       0.11440000       0.87190000
   121  C          0.19091120       0.52282000       0.93057000
   122  C          0.30908880       0.97718000       0.43057000
   123  C          0.80908880       0.52282000       0.56943000
   124  C          0.69091120       0.97718000       0.06943000
   125  C          0.80908880       0.47718000       0.06943000
   126  C          0.69091120       0.02282000       0.56943000
   127  C          0.19091120       0.47718000       0.43057000
   128  C          0.30908880       0.02282000       0.93057000
   129  H          0.17310000       0.45180000       0.87730000
   130  H          0.32690000       0.04820000       0.37730000
   131  H          0.82690000       0.45180000       0.62270000
   132  H          0.67310000       0.04820000       0.12270000
   133  H          0.82690000       0.54820000       0.12270000
   134  H          0.67310000       0.95180000       0.62270000
   135  H          0.17310000       0.54820000       0.37730000
   136  H          0.32690000       0.95180000       0.87730000
   137  C          0.25701120       0.53732000       0.94027000
   138  C          0.24298880       0.96268000       0.44027000
   139  C          0.74298880       0.53732000       0.55973000
   140  C          0.75701120       0.96268000       0.05973000
   141  C          0.74298880       0.46268000       0.05973000
   142  C          0.75701120       0.03732000       0.55973000
   143  C          0.25701120       0.46268000       0.44027000
   144  C          0.24298880       0.03732000       0.94027000
   145  H          0.28390000       0.47510000       0.89200000
   146  H          0.21610000       0.02490000       0.39200000
   147  H          0.71610000       0.47510000       0.60800000
   148  H          0.78390000       0.02490000       0.10800000
   149  H          0.71610000       0.52490000       0.10800000
   150  H          0.78390000       0.97510000       0.60800000
   151  H          0.28390000       0.52490000       0.39200000
   152  H          0.21610000       0.97510000       0.89200000
