data_BOZGAY
_symmetry_space_group_name_H-M    'P1'
_symmetry_Int_Tables_number       1
loop_
_symmetry_equiv_pos_site_id
_symmetry_equiv_pos_as_xyz
1 x,y,z
_cell_length_a                   8.4544
_cell_length_b                   10.5975
_cell_length_c                   11.7545
_cell_angle_alpha                90.0
_cell_angle_beta                 111.09
_cell_angle_gamma                90.0
loop_
_atom_site_label
_atom_site_type_symbol
_atom_site_fract_x
_atom_site_fract_y
_atom_site_fract_z
     1  Cl         0.00000000       0.50120000       0.00000000
     2  Cl         0.50000000       0.00120000       0.00000000
     3  C          0.45240000       0.31460000       0.15790000
     4  C          0.95240000       0.81460000       0.15790000
     5  C          0.54760000       0.31460000       0.84210000
     6  C          0.04760000       0.81460000       0.84210000
     7  N          0.33300000       0.38380000       0.19760000
     8  N          0.83300000       0.88380000       0.19760000
     9  N          0.66700000       0.38380000       0.80240000
    10  N          0.16700000       0.88380000       0.80240000
    11  C          0.35520000       0.40290000       0.31220000
    12  C          0.85520000       0.90290000       0.31220000
    13  C          0.64480000       0.40290000       0.68780000
    14  C          0.14480000       0.90290000       0.68780000
    15  O          0.48880000       0.36150000       0.39380000
    16  O         -0.01120000       0.86150000       0.39380000
    17  O          0.51120000       0.36150000       0.60620000
    18  O          0.01120000       0.86150000       0.60620000
    19  C          0.22470000       0.47450000       0.34290000
    20  C          0.72470000       0.97450000       0.34290000
    21  C          0.77530000       0.47450000       0.65710000
    22  C          0.27530000       0.97450000       0.65710000
    23  H          0.21500000       0.40900000       0.13800000
    24  H          0.71500000       0.90900000       0.13800000
    25  H          0.78500000       0.40900000       0.86200000
    26  H          0.28500000       0.90900000       0.86200000
    27  H          0.41700000       0.25400000       0.11800000
    28  H          0.91700000       0.75400000       0.11800000
    29  H          0.58300000       0.25400000       0.88200000
    30  H          0.08300000       0.75400000       0.88200000
    31  H          0.54600000       0.29300000       0.22800000
    32  H          0.04600000       0.79300000       0.22800000
    33  H          0.45400000       0.29300000       0.77200000
    34  H          0.95400000       0.79300000       0.77200000
    35  H          0.47700000       0.36200000       0.09100000
    36  H          0.97700000       0.86200000       0.09100000
    37  H          0.52300000       0.36200000       0.90900000
    38  H          0.02300000       0.86200000       0.90900000
    39  H          0.25800000       0.55400000       0.37700000
    40  H          0.75800000       0.05400000       0.37700000
    41  H          0.74200000       0.55400000       0.62300000
    42  H          0.24200000       0.05400000       0.62300000
    43  H          0.17300000       0.41600000       0.39600000
    44  H          0.67300000       0.91600000       0.39600000
    45  H          0.82700000       0.41600000       0.60400000
    46  H          0.32700000       0.91600000       0.60400000
    47  H          0.13900000       0.51200000       0.27600000
    48  H          0.63900000       0.01200000       0.27600000
    49  H          0.86100000       0.51200000       0.72400000
    50  H          0.36100000       0.01200000       0.72400000
    51  Cl         0.00000000       0.25120000       0.50000000
    52  Cl         0.50000000       0.75120000       0.50000000
    53  C          0.29390000       0.06400000       0.34260000
    54  C          0.79390000       0.56400000       0.34260000
    55  C          0.70610000       0.06400000       0.65740000
    56  C          0.20610000       0.56400000       0.65740000
    57  N          0.13550000       0.13340000       0.30250000
    58  N          0.63550000       0.63340000       0.30250000
    59  N          0.86450000       0.13340000       0.69750000
    60  N          0.36450000       0.63340000       0.69750000
    61  C          0.04400000       0.15290000       0.18820000
    62  C          0.54400000       0.65290000       0.18820000
    63  C          0.95600000       0.15290000       0.81180000
    64  C          0.45600000       0.65290000       0.81180000
    65  O          0.09420000       0.11120000       0.10580000
    66  O          0.59420000       0.61120000       0.10580000
    67  O          0.90580000       0.11120000       0.89420000
    68  O          0.40580000       0.61120000       0.89420000
    69  C          0.88190000       0.22450000       0.15700000
    70  C          0.38190000       0.72450000       0.15700000
    71  C          0.11810000       0.22450000       0.84300000
    72  C          0.61810000       0.72450000       0.84300000
    73  H          0.11100000       0.16200000       0.36100000
    74  H          0.61100000       0.66200000       0.36100000
    75  H          0.88900000       0.16200000       0.63900000
    76  H          0.38900000       0.66200000       0.63900000
    77  H          0.37600000       0.11500000       0.41500000
    78  H          0.87600000       0.61500000       0.41500000
    79  H          0.62400000       0.11500000       0.58500000
    80  H          0.12400000       0.61500000       0.58500000
    81  H          0.31300000       0.04100000       0.26900000
    82  H          0.81300000       0.54100000       0.26900000
    83  H          0.68700000       0.04100000       0.73100000
    84  H          0.18700000       0.54100000       0.73100000
    85  H          0.27800000       0.97700000       0.37900000
    86  H          0.77800000       0.47700000       0.37900000
    87  H          0.72200000       0.97700000       0.62100000
    88  H          0.22200000       0.47700000       0.62100000
    89  H          0.78600000       0.16800000       0.10500000
    90  H          0.28600000       0.66800000       0.10500000
    91  H          0.21400000       0.16800000       0.89500000
    92  H          0.71400000       0.66800000       0.89500000
    93  H          0.89500000       0.30500000       0.10800000
    94  H          0.39500000       0.80500000       0.10800000
    95  H          0.10500000       0.30500000       0.89200000
    96  H          0.60500000       0.80500000       0.89200000
    97  H          0.86600000       0.25400000       0.23000000
    98  H          0.36600000       0.75400000       0.23000000
    99  H          0.13400000       0.25400000       0.77000000
   100  H          0.63400000       0.75400000       0.77000000
