data_BPINDO10
_symmetry_space_group_name_H-M    'P1'
_symmetry_Int_Tables_number       1
loop_
_symmetry_equiv_pos_site_id
_symmetry_equiv_pos_as_xyz
1 x,y,z
_cell_length_a                   18.4165
_cell_length_b                   14.6555
_cell_length_c                   5.2913
_cell_angle_alpha                86.925
_cell_angle_beta                 91.765
_cell_angle_gamma                103.875
loop_
_atom_site_label
_atom_site_type_symbol
_atom_site_fract_x
_atom_site_fract_y
_atom_site_fract_z
     1  Br         0.44668000       0.36263000       0.64769000
     2  Br         0.55332000       0.63737000       0.35231000
     3  C          0.14700000       0.57130000       0.79490000
     4  C          0.85300000       0.42870000       0.20510000
     5  C          0.27840000       0.55330000       0.68670000
     6  C          0.72160000       0.44670000       0.31330000
     7  C          0.27170000       0.49060000       0.49690000
     8  C          0.72830000       0.50940000       0.50310000
     9  C          0.32050000       0.43310000       0.48730000
    10  C          0.67950000       0.56690000       0.51270000
    11  C          0.37670000       0.43870000       0.66590000
    12  C          0.62330000       0.56130000       0.33410000
    13  C          0.38580000       0.50020000       0.85720000
    14  C          0.61420000       0.49980000       0.14280000
    15  C          0.33610000       0.55830000       0.86980000
    16  C          0.66390000       0.44170000       0.13020000
    17  C          0.22620000       0.61730000       0.70070000
    18  C          0.77380000       0.38270000       0.29930000
    19  C          0.21200000       0.66820000       0.44930000
    20  C          0.78800000       0.33180000       0.55070000
    21  C          0.09340000       0.70910000       0.24830000
    22  C          0.90660000       0.29090000       0.75170000
    23  C          0.01690000       0.69530000       0.27210000
    24  C          0.98310000       0.30470000       0.72790000
    25  C          0.97980000       0.64270000       0.47340000
    26  C          0.02020000       0.35730000       0.52660000
    27  C          0.01650000       0.59930000       0.66080000
    28  C          0.98350000       0.40070000       0.33920000
    29  C          0.09360000       0.61150000       0.63140000
    30  C          0.90640000       0.38850000       0.36860000
    31  C          0.13090000       0.66640000       0.43410000
    32  C          0.86910000       0.33360000       0.56590000
    33  H          0.12000000       0.74600000       0.09500000
    34  H          0.88000000       0.25400000       0.90500000
    35  H          0.99000000       0.72500000       0.14600000
    36  H          0.01000000       0.27500000       0.85400000
    37  H          0.92700000       0.63800000       0.49200000
    38  H          0.07300000       0.36200000       0.50800000
    39  H          0.99000000       0.56000000       0.82800000
    40  H          0.01000000       0.44000000       0.17200000
    41  H          0.23100000       0.48500000       0.36500000
    42  H          0.76900000       0.51500000       0.63500000
    43  H          0.31500000       0.39000000       0.35900000
    44  H          0.68500000       0.61000000       0.64100000
    45  H          0.42800000       0.50500000       0.00200000
    46  H          0.57200000       0.49500000      -0.00200000
    47  H          0.34100000       0.59900000      -0.01700000
    48  H          0.65900000       0.40100000       0.01700000
    49  H          0.23800000       0.66500000       0.81500000
    50  H          0.76200000       0.33500000       0.18500000
    51  O          0.13150000       0.51320000       0.96690000
    52  O          0.86850000       0.48680000       0.03310000
    53  O          0.25830000       0.70280000       0.29540000
    54  O          0.74170000       0.29720000       0.70460000
    55  Br         0.17805000       0.30683000      -0.00797000
    56  Br         0.82195000       0.69317000       0.00797000
    57  C          0.36020000       0.95700000       0.25790000
    58  C          0.63980000       0.04300000       0.74210000
    59  C          0.25230000       0.02390000       0.09250000
    60  C          0.74770000       0.97610000       0.90750000
    61  C          0.27710000       0.08620000       0.89020000
    62  C          0.72290000       0.91380000       0.10980000
    63  C          0.25650000       0.17100000       0.85600000
    64  C          0.74350000       0.82900000       0.14400000
    65  C          0.20730000       0.19040000       0.02720000
    66  C          0.79270000       0.80960000       0.97280000
    67  C          0.18070000       0.12860000       0.22870000
    68  C          0.81930000       0.87140000       0.77130000
    69  C          0.20400000       0.04610000       0.26140000
    70  C          0.79600000       0.95390000       0.73860000
    71  C          0.28040000       0.93590000       0.14330000
    72  C          0.71960000       0.06410000       0.85670000
    73  C          0.28660000       0.87870000       0.91510000
    74  C          0.71340000       0.12130000       0.08490000
    75  C          0.39270000       0.80690000       0.76320000
    76  C          0.60730000       0.19310000       0.23680000
    77  C          0.46410000       0.79810000       0.81550000
    78  C          0.53590000       0.20190000       0.18450000
    79  C          0.50620000       0.84220000       0.01600000
    80  C          0.49380000       0.15780000      -0.01600000
    81  C          0.47720000       0.89630000       0.17280000
    82  C          0.52280000       0.10370000       0.82720000
    83  C          0.40350000       0.90380000       0.12430000
    84  C          0.59650000       0.09620000       0.87570000
    85  C          0.36230000       0.85950000       0.92300000
    86  C          0.63770000       0.14050000       0.07700000
    87  H          0.36400000       0.77400000       0.64100000
    88  H          0.63600000       0.22600000       0.35900000
    89  H          0.48300000       0.76100000       0.70700000
    90  H          0.51700000       0.23900000       0.29300000
    91  H          0.55800000       0.84200000       0.04700000
    92  H          0.44200000       0.15800000       0.95300000
    93  H          0.50800000       0.93200000       0.31700000
    94  H          0.49200000       0.06800000       0.68300000
    95  H          0.30900000       0.07400000       0.76000000
    96  H          0.69100000       0.92600000       0.24000000
    97  H          0.27700000       0.21500000       0.70300000
    98  H          0.72300000       0.78500000       0.29700000
    99  H          0.14700000       0.14200000       0.35000000
   100  H          0.85300000       0.85800000       0.65000000
   101  H          0.18300000      -0.00300000       0.41800000
   102  H          0.81700000       0.00300000       0.58200000
   103  O          0.38190000       0.00830000       0.43130000
   104  O          0.61810000      -0.00830000       0.56870000
   105  O          0.23760000       0.85300000       0.75800000
   106  O          0.76240000       0.14700000       0.24200000
   107  C          0.02560000       0.91840000       0.54250000
   108  C          0.97440000       0.08160000       0.45750000
   109  C          0.04310000       0.00380000       0.73460000
   110  C          0.95690000      -0.00380000       0.26540000
   111  C          0.98040000       0.92840000       0.34650000
   112  C          0.01960000       0.07160000       0.65350000
