data_BUCRUP
_symmetry_space_group_name_H-M    'P1'
_symmetry_Int_Tables_number       1
loop_
_symmetry_equiv_pos_site_id
_symmetry_equiv_pos_as_xyz
1 x,y,z
_cell_length_a                   7.67945
_cell_length_b                   11.27137
_cell_length_c                   13.16198
_cell_angle_alpha                68.0106
_cell_angle_beta                 83.7745
_cell_angle_gamma                71.0986
loop_
_atom_site_label
_atom_site_type_symbol
_atom_site_fract_x
_atom_site_fract_y
_atom_site_fract_z
     1  C          0.37613000       0.34172000       0.14898180
     2  C          0.62387000       0.65828000       0.85101820
     3  C          0.26413000       0.41612000       0.03932180
     4  C          0.73587000       0.58388000       0.96067820
     5  C          0.17543000       0.53062000       0.21319190
     6  C          0.82457000       0.46938000       0.78680810
     7  C          0.15453000       0.24212000       0.13712000
     8  C          0.84547000       0.75788000       0.86288000
     9  C          0.29013000       0.23082000       0.20554190
    10  C          0.70987000       0.76918000       0.79445810
    11  C          0.32603000       0.13122000       0.30772000
    12  C          0.67397000       0.86878000       0.69228000
    13  H          0.41730000       0.12260000       0.35330000
    14  H          0.58270000       0.87740000       0.64670000
    15  C          0.47163000       0.44542000       0.27278180
    16  C          0.52837000       0.55458000       0.72721820
    17  C          0.35193000       0.43542000       0.20961180
    18  C          0.64807000       0.56458000       0.79038820
    19  C          0.67343000       0.37593000       0.29562000
    20  C          0.32657000       0.62407000       0.70438000
    21  H          0.74090000       0.43680000       0.25490000
    22  H          0.25910000       0.56320000       0.74510000
    23  H          0.71090000       0.29890000       0.27400000
    24  H          0.28910000       0.70110000       0.72600000
    25  H          0.69770000       0.34740000       0.37250000
    26  H          0.30230000       0.65260000       0.62750000
    27  C          0.04824000       0.15623000       0.17103000
    28  C          0.95176000       0.84377000       0.82897000
    29  H          0.95600000       0.16510000       0.12590000
    30  H          0.04400000       0.83490000       0.87410000
    31  C          0.22004000       0.04383000       0.34002000
    32  C          0.77996000       0.95617000       0.65998000
    33  C          0.93324000       0.70205000       0.49853000
    34  C          0.06676000       0.29795000       0.50147000
    35  H          0.94310000       0.68390000       0.57300000
    36  H          0.05690000       0.31610000       0.42700000
    37  C          0.06024000       0.66423000       0.33472000
    38  C          0.93976000       0.33577000       0.66528000
    39  C          0.46935000       0.63534000       0.32544000
    40  C          0.53065000       0.36466000       0.67456000
    41  H          0.50110000       0.68460000       0.25270000
    42  H          0.49890000       0.31540000       0.74730000
    43  H          0.57850000       0.58780000       0.37050000
    44  H          0.42150000       0.41220000       0.62950000
    45  H          0.38470000       0.69660000       0.35590000
    46  H          0.61530000       0.30340000       0.64410000
    47  C          0.90546000       0.75943000       0.27563000
    48  C          0.09454000       0.24057000       0.72437000
    49  H          0.89640000       0.78020000       0.20060000
    50  H          0.10360000       0.21980000       0.79940000
    51  C          0.08334000       0.05613000       0.27443000
    52  C          0.91666000       0.94387000       0.72557000
    53  H          0.01360000      -0.00290000       0.29930000
    54  H          0.98640000       0.00290000       0.70070000
    55  C          0.07475000       0.63514000       0.44503000
    56  C          0.92525000       0.36486000       0.55497000
    57  H          0.17890000       0.57070000       0.48410000
    58  H          0.82110000       0.42930000       0.51590000
    59  C          0.76375000       0.82334000       0.33064000
    60  C          0.23625000       0.17666000       0.66936000
    61  H          0.65790000       0.88590000       0.29220000
    62  H          0.34210000       0.11410000       0.70780000
    63  C          0.77845000       0.79545000       0.43934000
    64  C          0.22155000       0.20455000       0.56066000
    65  H          0.68310000       0.83980000       0.47450000
    66  H          0.31690000       0.16020000       0.52550000
    67  Cl         0.26067120       0.91655200       0.46930700
    68  Cl         0.73932880       0.08344800       0.53069300
    69  N          0.14853000       0.34872000       0.03759170
    70  N          0.85147000       0.65128000       0.96240830
    71  H          0.07980000       0.36870000       0.98240000
    72  H          0.92020000       0.63130000       0.01760000
    73  N          0.38223000       0.53812000       0.32074180
    74  N          0.61777000       0.46188000       0.67925820
    75  N          0.20113000       0.59692000       0.27758190
    76  N          0.79887000       0.40308000       0.72241810
    77  O          0.02582000       0.55082000       0.17297150
    78  O          0.97418000       0.44918000       0.82702850
    79  O          0.56212000       0.28520190       0.12508150
    80  O          0.43788000       0.71479810       0.87491850
    81  O          0.28183000       0.51632000       0.96546860
    82  O          0.71817000       0.48368000       0.03453140
    83  H          0.61340000       0.34530000       0.10130000
    84  H          0.38660000       0.65470000       0.89870000
    85  C          0.47120000       0.94221300       0.03551300
    86  C          0.52880000       0.05778700       0.96448700
    87  H          0.56490000       0.85860000       0.03990000
    88  H          0.43510000       0.14140000       0.96010000
    89  H          0.44690000       0.94430000       0.10890000
    90  H          0.55310000       0.05570000       0.89110000
    91  C          0.30330000       0.95520000       0.98498300
    92  C          0.69670000       0.04480000       0.01501700
    93  H          0.33590000       0.93150000       0.92000000
    94  H          0.66410000       0.06850000       0.08000000
    95  H          0.22660000       0.04780000       0.96160000
    96  H          0.77340000       0.95220000       0.03840000
    97  C          0.18550000       0.86440000       0.06130000
    98  C          0.81450000       0.13560000       0.93870000
    99  H          0.07850000       0.87710000       0.02120000
   100  H          0.92150000       0.12290000       0.97880000
   101  H          0.14620000       0.88840000       0.12440000
   102  H          0.85380000       0.11160000       0.87560000
   103  H          0.25810000       0.77100000       0.08420000
   104  H          0.74190000       0.22900000       0.91580000
   105  C          0.81550000       0.13640000       0.93870000
   106  C          0.18450000       0.86360000       0.06130000
