data_BUCXEF
_symmetry_space_group_name_H-M    'P1'
_symmetry_Int_Tables_number       1
loop_
_symmetry_equiv_pos_site_id
_symmetry_equiv_pos_as_xyz
1 x,y,z
_cell_length_a                   13.124011
_cell_length_b                   20.942714
_cell_length_c                   8.46997
_cell_angle_alpha                90.0
_cell_angle_beta                 92.2023
_cell_angle_gamma                90.0
loop_
_atom_site_label
_atom_site_type_symbol
_atom_site_fract_x
_atom_site_fract_y
_atom_site_fract_z
     1  Br         0.23837200       0.01866200       0.66991300
     2  Br         0.76162800       0.51866200       0.83008700
     3  Br         0.76162800       0.98133800       0.33008700
     4  Br         0.23837200       0.48133800       0.16991300
     5  F          0.28044130       0.98819200       0.48726180
     6  F          0.71955870       0.48819200       0.01273820
     7  F          0.71955870       0.01180800       0.51273820
     8  F          0.28044130       0.51180800      -0.01273820
     9  O          0.12451130       0.04151900       0.61512000
    10  O          0.87548870       0.54151900       0.88488000
    11  O          0.87548870       0.95848100       0.38488000
    12  O          0.12451130       0.45848100       0.11512000
    13  O          0.30800150       0.08152900       0.68732000
    14  O          0.69199850       0.58152900       0.81268000
    15  O          0.69199850       0.91847100       0.31268000
    16  O          0.30800150       0.41847100       0.18732000
    17  Br         0.27649200       0.19855200       0.48363400
    18  Br         0.72350800       0.69855200       0.01636600
    19  Br         0.72350800       0.80144800       0.51636600
    20  Br         0.27649200       0.30144800      -0.01636600
    21  F          0.15089130       0.21602900       0.55733000
    22  F          0.84910870       0.71602900       0.94267000
    23  F          0.84910870       0.78397100       0.44267000
    24  F          0.15089130       0.28397100       0.05733000
    25  O          0.24405170       0.15099110       0.34473000
    26  O          0.75594830       0.65099110       0.15527000
    27  O          0.75594830       0.84900890       0.65527000
    28  O          0.24405170       0.34900890       0.84473000
    29  O          0.30270170       0.26664100       0.41163000
    30  O          0.69729830       0.76664100       0.08837000
    31  O          0.69729830       0.73335900       0.58837000
    32  O          0.30270170       0.23335900       0.91163000
    33  Br         0.76143200       0.11701200      -0.00331700
    34  Br         0.23856800       0.61701200       0.50331700
    35  Br         0.23856800       0.88298800       0.00331700
    36  Br         0.76143200       0.38298800       0.49668300
    37  F          0.70024140       0.09868900       0.82102000
    38  F          0.29975860       0.59868900       0.67898000
    39  F          0.29975860       0.90131100       0.17898000
    40  F          0.70024140       0.40131100       0.32102000
    41  O          0.87700130       0.13495900       0.93342000
    42  O          0.12299870       0.63495900       0.56658000
    43  O          0.12299870       0.86504100       0.06658000
    44  O          0.87700130       0.36504100       0.43342000
    45  O          0.71242150       0.18567900       0.03952000
    46  O          0.28757850       0.68567900       0.46048000
    47  O          0.28757850       0.81432100       0.96048000
    48  O          0.71242150       0.31432100       0.53952000
    49  O          0.84487130       0.10778800       0.28992000
    50  O          0.15512870       0.60778800       0.21008000
    51  O          0.15512870       0.89221200       0.71008000
    52  O          0.84487130       0.39221200       0.78992000
    53  C          0.89525180       0.14502120       0.37283000
    54  C          0.10474820       0.64502120       0.12717000
    55  C          0.10474820       0.85497880       0.62717000
    56  C          0.89525180       0.35497880       0.87283000
    57  C          0.92082000       0.13037140       0.54203000
    58  C          0.07918000       0.63037140       0.95797000
    59  C          0.07918000       0.86962860       0.45797000
    60  C          0.92082000       0.36962860       0.04203000
    61  H          0.88880000       0.08990000       0.57070000
    62  H          0.11120000       0.58990000       0.92930000
    63  H          0.11120000       0.91010000       0.42930000
    64  H          0.88880000       0.41010000       0.07070000
    65  H          0.89550000       0.16470000       0.60860000
    66  H          0.10450000       0.66470000       0.89140000
    67  H          0.10450000       0.83530000       0.39140000
    68  H          0.89550000       0.33530000       0.10860000
    69  H         -0.00500000       0.12680000       0.55790000
    70  H          0.00500000       0.62680000       0.94210000
    71  H          0.00500000       0.87320000       0.44210000
    72  H         -0.00500000       0.37320000       0.05790000
    73  C          0.93263000       0.20668140       0.30824000
    74  C          0.06737000       0.70668140       0.19176000
    75  C          0.06737000       0.79331860       0.69176000
    76  C          0.93263000       0.29331860       0.80824000
    77  H          0.91710000       0.20840000       0.19420000
    78  H          0.08290000       0.70840000       0.30580000
    79  H          0.08290000       0.79160000       0.80580000
    80  H          0.91710000       0.29160000       0.69420000
    81  H          0.00650000       0.20990000       0.32810000
    82  H         -0.00650000       0.70990000       0.17190000
    83  H         -0.00650000       0.79010000       0.67190000
    84  H          0.00650000       0.29010000       0.82810000
    85  H          0.89880000       0.24230000       0.36000000
    86  H          0.10120000       0.74230000       0.14000000
    87  H          0.10120000       0.75770000       0.64000000
    88  H          0.89880000       0.25770000       0.86000000
    89  O          0.18515150       0.01336900       0.96982000
    90  O          0.81484850       0.51336900       0.53018000
    91  O          0.81484850       0.98663100       0.03018000
    92  O          0.18515150       0.48663100       0.46982000
    93  C          0.13655190       0.05251120       0.04303000
    94  C          0.86344810       0.55251120       0.45697000
    95  C          0.86344810       0.94748880       0.95697000
    96  C          0.13655190       0.44748880       0.54303000
    97  C          0.12872000       0.12015120      -0.00967000
    98  C          0.87128000       0.62015120       0.50967000
    99  C          0.87128000       0.87984880       0.00967000
   100  C          0.12872000       0.37984880       0.49033000
   101  H          0.17910000       0.12840000       0.91040000
   102  H          0.82090000       0.62840000       0.58960000
   103  H          0.82090000       0.87160000       0.08960000
   104  H          0.17910000       0.37160000       0.41040000
   105  H          0.14160000       0.14850000       0.08100000
   106  H          0.85840000       0.64850000       0.41900000
   107  H          0.85840000       0.85150000       0.91900000
   108  H          0.14160000       0.35150000       0.58100000
   109  H          0.06010000       0.12820000       0.94480000
   110  H          0.93990000       0.62820000       0.55520000
   111  H          0.93990000       0.87180000       0.05520000
   112  H          0.06010000       0.37180000       0.44480000
   113  C          0.08272000       0.03379140       0.18733000
   114  C          0.91728000       0.53379140       0.31267000
   115  C          0.91728000       0.96620860       0.81267000
   116  C          0.08272000       0.46620860       0.68733000
   117  H          0.08870000       0.98760000       0.20300000
   118  H          0.91130000       0.48760000       0.29700000
   119  H          0.91130000       0.01240000       0.79700000
   120  H          0.08870000       0.51240000       0.70300000
   121  H          0.01050000       0.04540000       0.17480000
   122  H         -0.01050000       0.54540000       0.32520000
   123  H         -0.01050000       0.95460000       0.82520000
   124  H          0.01050000       0.45460000       0.67480000
   125  H          0.11330000       0.05600000       0.27920000
   126  H          0.88670000       0.55600000       0.22080000
   127  H          0.88670000       0.94400000       0.72080000
   128  H          0.11330000       0.44400000       0.77920000
   129  O          0.60761130       0.05475900       0.15012000
   130  O          0.39238870       0.55475900       0.34988000
   131  O          0.39238870       0.94524100       0.84988000
   132  O          0.60761130       0.44524100       0.65012000
   133  C          0.51482000       0.05896120       0.15703000
   134  C          0.48518000       0.55896120       0.34297000
   135  C          0.48518000       0.94103880       0.84297000
   136  C          0.51482000       0.44103880       0.65703000
   137  C          0.45462000       0.10405150       0.05374000
   138  C          0.54538000       0.60405150       0.44626000
   139  C          0.54538000       0.89594850       0.94626000
   140  C          0.45462000       0.39594850       0.55374000
   141  H          0.50120000       0.13040000      -0.00640000
   142  H          0.49880000       0.63040000       0.50640000
   143  H          0.49880000       0.86960000       0.00640000
   144  H          0.50120000       0.36960000       0.49360000
   145  H          0.41320000       0.13160000       0.11920000
   146  H          0.58680000       0.63160000       0.38080000
   147  H          0.58680000       0.86840000       0.88080000
   148  H          0.41320000       0.36840000       0.61920000
   149  H          0.41000000       0.07970000       0.98040000
   150  H          0.59000000       0.57970000       0.51960000
   151  H          0.59000000       0.92030000       0.01960000
   152  H          0.41000000       0.42030000       0.48040000
   153  C          0.45762000       0.01965150       0.26954000
   154  C          0.54238000       0.51965150       0.23046000
   155  C          0.54238000       0.98034850       0.73046000
   156  C          0.45762000       0.48034850       0.76954000
   157  H          0.50370000       0.98840000       0.32050000
   158  H          0.49630000       0.48840000       0.17950000
   159  H          0.49630000       0.01160000       0.67950000
   160  H          0.50370000       0.51160000       0.82050000
   161  H          0.40200000      -0.00280000       0.21220000
   162  H          0.59800000       0.49720000       0.28780000
   163  H          0.59800000       0.00280000       0.78780000
   164  H          0.40200000       0.50280000       0.71220000
   165  H          0.42920000       0.04740000       0.35000000
   166  H          0.57080000       0.54740000       0.15000000
   167  H          0.57080000       0.95260000       0.65000000
   168  H          0.42920000       0.45260000       0.85000000
   169  O          0.46185140       0.16534900       0.44582000
   170  O          0.53814860       0.66534900       0.05418000
   171  O          0.53814860       0.83465100       0.55418000
   172  O          0.46185140       0.33465100       0.94582000
   173  C          0.53691190       0.18001110       0.52733000
   174  C          0.46308810       0.68001110       0.97267000
   175  C          0.46308810       0.81998890       0.47267000
   176  C          0.53691190       0.31998890       0.02733000
   177  C          0.64142000       0.16487120       0.47503000
   178  C          0.35858000       0.66487120       0.02497000
   179  C          0.35858000       0.83512880       0.52497000
   180  C          0.64142000       0.33512880       0.97503000
   181  H          0.66950000       0.12910000       0.53740000
   182  H          0.33050000       0.62910000       0.96260000
   183  H          0.33050000       0.87090000       0.46260000
   184  H          0.66950000       0.37090000       0.03740000
   185  H          0.68540000       0.20240000       0.49050000
   186  H          0.31460000       0.70240000       0.00950000
   187  H          0.31460000       0.79760000       0.50950000
   188  H          0.68540000       0.29760000      -0.00950000
   189  H          0.63810000       0.15320000       0.36290000
   190  H          0.36190000       0.65320000       0.13710000
   191  H          0.36190000       0.84680000       0.63710000
   192  H          0.63810000       0.34680000       0.86290000
   193  C          0.52812000       0.21451140       0.68093000
   194  C          0.47188000       0.71451140       0.81907000
   195  C          0.47188000       0.78548860       0.31907000
   196  C          0.52812000       0.28548860       0.18093000
   197  H          0.53970000       0.26020000       0.66490000
   198  H          0.46030000       0.76020000       0.83510000
   199  H          0.46030000       0.73980000       0.33510000
   200  H          0.53970000       0.23980000       0.16490000
   201  H          0.57900000       0.19790000       0.75800000
   202  H          0.42100000       0.69790000       0.74200000
   203  H          0.42100000       0.80210000       0.24200000
   204  H          0.57900000       0.30210000       0.25800000
   205  H          0.45960000       0.20800000       0.72050000
   206  H          0.54040000       0.70800000       0.77950000
   207  H          0.54040000       0.79200000       0.27950000
   208  H          0.45960000       0.29200000       0.22050000
