data_BUFQAU
_symmetry_space_group_name_H-M    'P1'
_symmetry_Int_Tables_number       1
loop_
_symmetry_equiv_pos_site_id
_symmetry_equiv_pos_as_xyz
1 x,y,z
_cell_length_a                   6.3862
_cell_length_b                   26.6568
_cell_length_c                   13.8384
_cell_angle_alpha                90.0
_cell_angle_beta                 96.6475
_cell_angle_gamma                90.0
loop_
_atom_site_label
_atom_site_type_symbol
_atom_site_fract_x
_atom_site_fract_y
_atom_site_fract_z
     1  N          0.15596000       0.97498880       0.16912000
     2  N          0.84404000       0.47498880       0.33088000
     3  N          0.84404000       0.02501120       0.83088000
     4  N          0.15596000       0.52501120       0.66912000
     5  C          0.95713000       0.96545850       0.13203000
     6  C          0.04287000       0.46545850       0.36797000
     7  C          0.04287000       0.03454150       0.86797000
     8  C          0.95713000       0.53454150       0.63203000
     9  H          0.92330000       0.92770000       0.12700000
    10  H          0.07670000       0.42770000       0.37300000
    11  H          0.07670000       0.07230000       0.87300000
    12  H          0.92330000       0.57230000       0.62700000
    13  C          0.82113000       0.00163140       0.09273000
    14  C          0.17887000       0.50163140       0.40727000
    15  C          0.17887000      -0.00163140       0.90727000
    16  C          0.82113000       0.49836860       0.59273000
    17  H          0.66680000       0.99080000       0.04960000
    18  H          0.33320000       0.49080000       0.45040000
    19  H          0.33320000       0.00920000       0.95040000
    20  H          0.66680000       0.50920000       0.54960000
    21  C          0.89284000       0.05081140       0.09013000
    22  C          0.10716000       0.55081140       0.40987000
    23  C          0.10716000       0.94918860       0.90987000
    24  C          0.89284000       0.44918860       0.59013000
    25  C          0.09996000       0.06079150       0.13023000
    26  C          0.90004000       0.56079150       0.36977000
    27  C          0.90004000       0.93920850       0.86977000
    28  C          0.09996000       0.43920850       0.63023000
    29  H          0.15170000       0.09700000       0.13270000
    30  H          0.84830000       0.59700000       0.36730000
    31  H          0.84830000       0.90300000       0.86730000
    32  H          0.15170000       0.40300000       0.63270000
    33  C          0.22567000       0.02278150       0.16873000
    34  C          0.77433000       0.52278150       0.33127000
    35  C          0.77433000       0.97721850       0.83127000
    36  C          0.22567000       0.47721850       0.66873000
    37  H          0.38730000       0.02790000       0.20360000
    38  H          0.61270000       0.52790000       0.29640000
    39  H          0.61270000       0.97210000       0.79640000
    40  H          0.38730000       0.47210000       0.70360000
    41  O          0.56025000       0.08074100       0.01922000
    42  O          0.43975000       0.58074100       0.48078000
    43  O          0.43975000       0.91925900       0.98078000
    44  O          0.56025000       0.41925900       0.51922000
    45  N          0.82844000       0.13390130       0.02673000
    46  N          0.17156000       0.63390130       0.47327000
    47  N          0.17156000       0.86609870       0.97327000
    48  N          0.82844000       0.36609870       0.52673000
    49  H          0.74050000       0.16180000      -0.00580000
    50  H          0.25950000       0.66180000       0.50580000
    51  H          0.25950000       0.83820000       0.00580000
    52  H          0.74050000       0.33820000       0.49420000
    53  H         -0.02280000       0.14000000       0.03130000
    54  H          0.02280000       0.64000000       0.46870000
    55  H          0.02280000       0.86000000       0.96870000
    56  H         -0.02280000       0.36000000       0.53130000
    57  C          0.74673000       0.09038160       0.04403000
    58  C          0.25327000       0.59038160       0.45597000
    59  C          0.25327000       0.90961840       0.95597000
    60  C          0.74673000       0.40961840       0.54403000
    61  C          0.72407000       0.87644860       0.31583000
    62  C          0.27593000       0.37644860       0.18417000
    63  C          0.27593000       0.12355140       0.68417000
    64  C          0.72407000       0.62355140       0.81583000
    65  C          0.65697000       0.82673860       0.30953000
    66  C          0.34303000       0.32673860       0.19047000
    67  C          0.34303000       0.17326140       0.69047000
    68  C          0.65697000       0.67326140       0.80953000
    69  H          0.50420000       0.81190000       0.26840000
    70  H          0.49580000       0.31190000       0.23160000
    71  H          0.49580000       0.18810000       0.73160000
    72  H          0.50420000       0.68810000       0.76840000
    73  C          0.79668000       0.79022850       0.34723000
    74  C          0.20332000       0.29022850       0.15277000
    75  C          0.20332000       0.20977150       0.65277000
    76  C          0.79668000       0.70977150       0.84723000
    77  N          0.72078000       0.73803860       0.34523000
    78  N          0.27922000       0.23803860       0.15477000
    79  N          0.27922000       0.26196140       0.65477000
    80  N          0.72078000       0.76196140       0.84523000
    81  O          0.85046000       0.70473890       0.36782000
    82  O          0.14954000       0.20473890       0.13218000
    83  O          0.14954000       0.29526110       0.63218000
    84  O          0.85046000       0.79526110       0.86782000
    85  O          0.53356000       0.73022890       0.32113000
    86  O          0.46644000       0.23022890       0.17887000
    87  O          0.46644000       0.26977110       0.67887000
    88  O          0.53356000       0.76977110       0.82113000
    89  C         -0.00133000       0.79983850       0.39013000
    90  C          0.00133000       0.29983850       0.10987000
    91  C          0.00133000       0.20016150       0.60987000
    92  C         -0.00133000       0.70016150       0.89013000
    93  H          0.11220000       0.76830000       0.42110000
    94  H          0.88780000       0.26830000       0.07890000
    95  H          0.88780000       0.23170000       0.57890000
    96  H          0.11220000       0.73170000       0.92110000
    97  C          0.05567000       0.84971840       0.39493000
    98  C          0.94433000       0.34971840       0.10507000
    99  C          0.94433000       0.15028160       0.60507000
   100  C          0.05567000       0.65028160       0.89493000
   101  N          0.26746000       0.86176850       0.44293000
   102  N          0.73254000       0.36176850       0.05707000
   103  N          0.73254000       0.13823150       0.55707000
   104  N          0.26746000       0.63823150       0.94293000
   105  O          0.38605000       0.82672880       0.46832000
   106  O          0.61395000       0.32672880       0.03168000
   107  O          0.61395000       0.17327120       0.53168000
   108  O          0.38605000       0.67327120       0.96832000
   109  O          0.31495000       0.90616870       0.45542000
   110  O          0.68505000       0.40616870       0.04458000
   111  O          0.68505000       0.09383130       0.54458000
   112  O          0.31495000       0.59383130       0.95542000
   113  C          0.92397000       0.88830850       0.35873000
   114  C          0.07603000       0.38830850       0.14127000
   115  C          0.07603000       0.11169150       0.64127000
   116  C          0.92397000       0.61169150       0.85873000
   117  H          0.97130000       0.92560000       0.36820000
   118  H          0.02870000       0.42560000       0.13180000
   119  H          0.02870000       0.07440000       0.63180000
   120  H          0.97130000       0.57440000       0.86820000
   121  O          0.63175000       0.96177900       0.28912000
   122  O          0.36825000       0.46177900       0.21088000
   123  O          0.36825000       0.03822100       0.71088000
   124  O          0.63175000       0.53822100       0.78912000
   125  C          0.57847000       0.91811830       0.27823000
   126  C          0.42153000       0.41811830       0.22177000
   127  C          0.42153000       0.08188170       0.72177000
   128  C          0.57847000       0.58188170       0.77823000
   129  O          0.39795000       0.90316900       0.23452000
   130  O          0.60205000       0.40316900       0.26548000
   131  O          0.60205000       0.09683100       0.76548000
   132  O          0.39795000       0.59683100       0.73452000
   133  H          0.28980000       0.93810000       0.20680000
   134  H          0.71020000       0.43810000       0.29320000
   135  H          0.71020000       0.06190000       0.79320000
   136  H          0.28980000       0.56190000       0.70680000
   137  C          0.07383000       0.31798140       0.86627000
   138  C          0.92617000       0.81798140       0.63373000
   139  C          0.92617000       0.68201860       0.13373000
   140  C          0.07383000       0.18201860       0.36627000
   141  C          0.14353000       0.36748140       0.88507000
   142  C          0.85647000       0.86748140       0.61493000
   143  C          0.85647000       0.63251860       0.11493000
   144  C          0.14353000       0.13251860       0.38507000
   145  H          0.30640000       0.37070000       0.92040000
   146  H          0.69360000       0.87070000       0.57960000
   147  H          0.69360000       0.62930000       0.07960000
   148  H          0.30640000       0.12930000       0.42040000
   149  C          0.00683000       0.40731140       0.86377000
   150  C         -0.00683000       0.90731140       0.63623000
   151  C         -0.00683000       0.59268860       0.13623000
   152  C          0.00683000       0.09268860       0.36377000
   153  C          0.80143000       0.39796150       0.82017000
   154  C          0.19857000       0.89796150       0.67983000
   155  C          0.19857000       0.60203850       0.17983000
   156  C          0.80143000       0.10203850       0.32017000
   157  C          0.73313000       0.35003150       0.80047000
   158  C          0.26687000       0.85003150       0.69953000
   159  C          0.26687000       0.64996850       0.19953000
   160  C          0.73313000       0.14996850       0.30047000
   161  H          0.56470000       0.34430000       0.76620000
   162  H          0.43530000       0.84430000       0.73380000
   163  H          0.43530000       0.65570000       0.23380000
   164  H          0.56470000       0.15570000       0.26620000
   165  C          0.86823000       0.30979150       0.82427000
   166  C          0.13177000       0.80979150       0.67573000
   167  C          0.13177000       0.69020850       0.17573000
   168  C          0.86823000       0.19020850       0.32427000
   169  H          0.80130000       0.27100000       0.81100000
   170  H          0.19870000       0.77100000       0.68900000
   171  H          0.19870000       0.72900000       0.18900000
   172  H          0.80130000       0.22900000       0.31100000
   173  O          0.05175000       0.45714900       0.88108000
   174  O          0.94825000       0.95714900       0.61892000
   175  O          0.94825000       0.54285100       0.11892000
   176  O          0.05175000       0.04285100       0.38108000
   177  C          0.25293000       0.46886160       0.93416000
   178  C          0.74707000       0.96886160       0.56584000
   179  C          0.74707000       0.53113840       0.06584000
   180  C          0.25293000       0.03113840       0.43416000
   181  H          0.26200000       0.50830000       0.94540000
   182  H          0.73800000       0.00830000       0.55460000
   183  H          0.73800000       0.49170000       0.05460000
   184  H          0.26200000       0.99170000       0.44540000
   185  H          0.26400000       0.44870000       0.00180000
   186  H          0.73600000       0.94870000       0.49820000
   187  H          0.73600000       0.55130000      -0.00180000
   188  H          0.26400000       0.05130000       0.50180000
   189  H          0.36720000       0.45590000       0.89210000
   190  H          0.63280000       0.95590000       0.60790000
   191  H          0.63280000       0.54410000       0.10790000
   192  H          0.36720000       0.04410000       0.39210000
   193  O          0.66486000       0.43677900       0.79678000
   194  O          0.33514000       0.93677900       0.70322000
   195  O          0.33514000       0.56322100       0.20322000
   196  O          0.66486000       0.06322100       0.29678000
   197  H          0.74640000       0.47220000       0.80370000
   198  H          0.25360000       0.97220000       0.69630000
   199  H          0.25360000       0.52780000       0.19630000
   200  H          0.74640000       0.02780000       0.30370000
   201  C          0.22143000       0.27684140       0.89167000
   202  C          0.77857000       0.77684140       0.60833000
   203  C          0.77857000       0.72315860       0.10833000
   204  C          0.22143000       0.22315860       0.39167000
   205  H          0.39100000       0.28930000       0.92620000
   206  H          0.60900000       0.78930000       0.57380000
   207  H          0.60900000       0.71070000       0.07380000
   208  H          0.39100000       0.21070000       0.42620000
   209  C          0.17683000       0.22798140       0.89787000
   210  C          0.82317000       0.72798140       0.60213000
   211  C          0.82317000       0.77201860       0.10213000
   212  C          0.17683000       0.27201860       0.39787000
   213  H          0.00900000       0.21650000       0.88400000
   214  H         -0.00900000       0.71650000       0.61600000
   215  H         -0.00900000       0.78350000       0.11600000
   216  H          0.00900000       0.28350000       0.38400000
   217  O          0.53365000       0.20338100       0.93797000
   218  O          0.46635000       0.70338100       0.56203000
   219  O          0.46635000       0.79661900       0.06203000
   220  O          0.53365000       0.29661900       0.43797000
   221  C          0.34762000       0.19228150       0.92777000
   222  C          0.65238000       0.69228150       0.57223000
   223  C          0.65238000       0.80771850       0.07223000
   224  C          0.34762000       0.30771850       0.42777000
   225  O          0.27896000       0.14623900       0.94298000
   226  O          0.72104000       0.64623900       0.55702000
   227  O          0.72104000       0.85376100       0.05702000
   228  O          0.27896000       0.35376100       0.44298000
   229  H          0.39000000       0.12180000       0.96540000
   230  H          0.61000000       0.62180000       0.53460000
   231  H          0.61000000       0.87820000       0.03460000
   232  H          0.39000000       0.37820000       0.46540000
