data_BUGDUG
_symmetry_space_group_name_H-M    'P1'
_symmetry_Int_Tables_number       1
loop_
_symmetry_equiv_pos_site_id
_symmetry_equiv_pos_as_xyz
1 x,y,z
_cell_length_a                   5.3861213
_cell_length_b                   13.72174
_cell_length_c                   16.97114
_cell_angle_alpha                67.3403
_cell_angle_beta                 83.4972
_cell_angle_gamma                79.3772
loop_
_atom_site_label
_atom_site_type_symbol
_atom_site_fract_x
_atom_site_fract_y
_atom_site_fract_z
     1  C          0.60935000      -0.00218000       0.92369850
     2  C          0.39065000       0.00218000       0.07630150
     3  C          0.72375000       0.92964190      -0.00193150
     4  C          0.27625000       0.07035810       0.00193150
     5  C          0.61165000       0.93322000       0.07446150
     6  C          0.38835000       0.06678000       0.92553850
     7  F          0.71043000      -0.00163880       0.84753100
     8  F          0.28957000       0.00163880       0.15246900
     9  F          0.71803000       0.87066120       0.14857900
    10  F          0.28197000       0.12933880       0.85142100
    11  I          0.06136300       0.82838200      -0.00566200
    12  I          0.93863700       0.17161800       0.00566200
    13  C          0.31225000       0.34832000       0.06221160
    14  C          0.68775000       0.65168000       0.93778840
    15  C          0.11285000       0.39532000       0.10710150
    16  C          0.88715000       0.60468000       0.89289850
    17  C          0.91635000       0.33902000       0.15141160
    18  C          0.08365000       0.66098000       0.84858840
    19  H          0.91567600       0.26895000       0.15326900
    20  H          0.08432400       0.73105000       0.84673100
    21  C          0.72345000       0.38552000       0.19243150
    22  C          0.27655000       0.61448000       0.80756850
    23  H          0.58902900       0.34727500       0.22164600
    24  H          0.41097100       0.65272500       0.77835400
    25  C          0.72215000       0.48862000       0.19174140
    26  C          0.27785000       0.51138000       0.80825860
    27  C          0.92495000       0.54152000       0.14892150
    28  C          0.07505000       0.45848000       0.85107850
    29  H          0.93043300       0.61018900       0.14908800
    30  H          0.06956700       0.38981100       0.85091200
    31  C          0.11725000       0.49712000       0.10644150
    32  C          0.88275000       0.50288000       0.89355850
    33  H          0.25137000       0.53527200       0.07702600
    34  H          0.74863000       0.46472800       0.92297400
    35  C          0.51015000       0.54054190       0.23271150
    36  C          0.48985000       0.45945810       0.76728850
    37  C          0.35665000       0.48292000       0.29972150
    38  C          0.64335000       0.51708000       0.70027850
    39  H          0.39268100       0.40706600       0.32196500
    40  H          0.60731900       0.59293400       0.67803500
    41  C          0.15195000       0.53302000       0.33515150
    42  C          0.84805000       0.46698000       0.66484850
    43  H          0.04971100       0.49176700       0.38075200
    44  H          0.95028900       0.50823300       0.61924800
    45  C          0.09855000       0.64402000       0.30307150
    46  C          0.90145000       0.35598000       0.69692850
    47  C          0.24885000       0.70332000       0.23603150
    48  C          0.75115000       0.29668000       0.76396850
    49  H          0.21238300       0.77908000       0.21407200
    50  H          0.78761700       0.22092000       0.78592800
    51  C          0.45015000       0.65282000       0.20122150
    52  C          0.54985000       0.34718000       0.79877850
    53  H          0.55026400       0.69439800       0.15515700
    54  H          0.44973600       0.30560200       0.84484300
    55  C          0.72245000       0.65092000       0.39504160
    56  C          0.27755000       0.34908000       0.60495840
    57  H          0.80490600       0.60372700       0.44882700
    58  H          0.19509400       0.39627300       0.55117300
    59  H          0.63793000       0.60743600       0.37452700
    60  H          0.36207000       0.39256400       0.62547300
    61  C          0.53415000       0.74002000       0.40881160
    62  C          0.46585000       0.25998000       0.59118840
    63  H          0.44787400       0.78296000       0.35488700
    64  H          0.55212600       0.21704000       0.64511300
    65  H          0.62731800       0.78731100       0.42187200
    66  H          0.37268200       0.21268900       0.57812800
    67  C          0.33475000       0.70242000       0.48011160
    68  C          0.66525000       0.29758000       0.51988840
    69  H          0.41831800       0.65465000       0.53351600
    70  H          0.58168200       0.34535000       0.46648400
    71  H          0.22777000       0.66139700       0.46493200
    72  H          0.77223000       0.33860300       0.53506800
    73  C          0.16915000       0.79792000       0.49450160
    74  C          0.83085000       0.20208000       0.50549840
    75  H          0.28062900       0.84175500       0.50407000
    76  H          0.71937100       0.15824500       0.49593000
    77  H          0.07949000       0.84249200       0.44155300
    78  H          0.92051000       0.15750800       0.55844700
    79  C          0.97385000       0.77072000       0.56874160
    80  C          0.02615000       0.22928000       0.43125840
    81  H          0.05935900       0.72169400       0.62144600
    82  H          0.94064100       0.27830600       0.37855400
    83  H          0.85019900       0.73328300       0.55715100
    84  H          0.14980100       0.26671700       0.44284900
    85  C          0.83384000       0.87072000       0.58283170
    86  C          0.16616000       0.12928000       0.41716830
    87  H          0.95952800       0.90744000       0.59423400
    88  H          0.04047200       0.09256000       0.40576600
    89  H          0.75260100       0.91973400       0.52932400
    90  H          0.24739900       0.08026600       0.47067600
    91  C          0.63295000       0.85052000       0.65553160
    92  C          0.36705000       0.14948000       0.34446840
    93  H          0.50179200       0.81714900       0.64322400
    94  H          0.49820800       0.18285100       0.35677600
    95  H          0.71156000       0.79966300       0.70902300
    96  H          0.28844000       0.20033700       0.29097700
    97  C          0.50864000       0.95232000       0.66857180
    98  C          0.49136000       0.04768000       0.33142820
    99  H          0.43420300       0.00363300       0.61450700
   100  H          0.56579700      -0.00363300       0.38549300
   101  H          0.64026000       0.98483100       0.68175400
   102  H          0.35974000       0.01516900       0.31824600
   103  C          0.30254000       0.93513000       0.73996190
   104  C          0.69746000       0.06487000       0.26003810
   105  H          0.16986400       0.90399900       0.72705000
   106  H          0.83013600       0.09600100       0.27295000
   107  H          0.22980400       0.00374200       0.74446900
   108  H          0.77019600      -0.00374200       0.25553100
   109  H          0.37570500       0.88633500       0.79420400
   110  H          0.62429500       0.11366500       0.20579600
   111  N          0.47004000       0.31172000       0.02687150
   112  N          0.52996000       0.68828000       0.97312850
   113  O          0.90444000       0.70349140       0.33163110
   114  O          0.09556000       0.29650860       0.66836890
