data_BUHVOT
_symmetry_space_group_name_H-M    'P1'
_symmetry_Int_Tables_number       1
loop_
_symmetry_equiv_pos_site_id
_symmetry_equiv_pos_as_xyz
1 x,y,z
_cell_length_a                   11.51522
_cell_length_b                   13.07393
_cell_length_c                   14.13323
_cell_angle_alpha                89.2642
_cell_angle_beta                 71.4172
_cell_angle_gamma                78.7822
loop_
_atom_site_label
_atom_site_type_symbol
_atom_site_fract_x
_atom_site_fract_y
_atom_site_fract_z
     1  S          0.82460700       0.70784500       0.42744600
     2  S          0.17539300       0.29215500       0.57255400
     3  S          0.33275700       0.69954500       0.51904600
     4  S          0.66724300       0.30045500       0.48095400
     5  O          0.89102000       0.73699170       0.32906180
     6  O          0.10898000       0.26300830       0.67093820
     7  O          0.81562000       0.59801160       0.43077180
     8  O          0.18438000       0.40198840       0.56922820
     9  O          0.24622000       0.72531180       0.61937180
    10  O          0.75378000       0.27468820       0.38062820
    11  O          0.27292000       0.72856170       0.44228170
    12  O          0.72708000       0.27143830       0.55771830
    13  O          0.87332000       0.73874170       0.50439180
    14  O          0.12668000       0.26125830       0.49560820
    15  O          0.39962000       0.59196160       0.50316180
    16  O          0.60038000       0.40803840       0.49683820
    17  C          0.64193000       0.89012000       0.46832000
    18  C          0.35807000       0.10988000       0.53168000
    19  C          0.57313000       0.72462000       0.47442000
    20  C          0.42687000       0.27538000       0.52558000
    21  H          0.59311800       0.65059300       0.46633200
    22  H          0.40688200       0.34940700       0.53366800
    23  C          0.66763000       0.78042000       0.45942000
    24  C          0.33237000       0.21958000       0.54058000
    25  C          0.26293000       0.04942000       0.54832000
    26  C          0.73707000       0.95058000       0.45168000
    27  H          0.17790900       0.08437600       0.56580700
    28  H          0.82209100       0.91562400       0.43419300
    29  C          0.41733000       0.88702000       0.51202000
    30  C          0.58267000       0.11298000       0.48798000
    31  C          0.51443000       0.94422000       0.49532000
    32  C          0.48557000       0.05578000       0.50468000
    33  C          0.29053000       0.94382000       0.53962000
    34  C          0.70947000       0.05618000       0.46038000
    35  H          0.22451300       0.90646300       0.55198900
    36  H          0.77548700       0.09353700       0.44801100
    37  C          0.44903000       0.77692000       0.50132000
    38  C          0.55097000       0.22308000       0.49868000
    39  S          0.82253700       0.70592500       0.92193400
    40  S          0.17746300       0.29407500       0.07806600
    41  S          0.32766700       0.70110500       0.05983500
    42  S          0.67233300       0.29889500       0.94016500
    43  O          0.88192000       0.73626170       0.82189820
    44  O          0.11808000       0.26373830       0.17810180
    45  O          0.25602000       0.73284170       0.16369170
    46  O          0.74398000       0.26715830       0.83630830
    47  O          0.81272000       0.59634160       0.92485820
    48  O          0.18728000       0.40365840       0.07514180
    49  O          0.25272000       0.72469170      -0.00683180
    50  O          0.74728000       0.27530830       0.00683180
    51  O          0.87842000       0.73457170      -0.00568190
    52  O          0.12158000       0.26542830       0.00568190
    53  O          0.39402000       0.59339160       0.04790170
    54  O          0.60598000       0.40660840       0.95209830
    55  C          0.64073000       0.88932000       0.96578000
    56  C          0.35927000       0.11068000       0.03422000
    57  C          0.56943000       0.72462000      -0.00922000
    58  C          0.43057000       0.27538000       0.00922000
    59  H          0.58828500       0.65044100       0.98884800
    60  H          0.41171500       0.34955900       0.01115200
    61  C          0.66533000       0.77962000       0.96178000
    62  C          0.33467000       0.22038000       0.03822000
    63  C          0.41503000       0.88792000       0.02592000
    64  C          0.58497000       0.11208000       0.97408000
    65  C          0.26253000       0.05112000       0.06072000
    66  C          0.73747000       0.94888000       0.93928000
    67  H          0.17755600       0.08667200       0.08159800
    68  H          0.82244400       0.91332800       0.91840200
    69  C          0.28883000       0.94552000       0.05682000
    70  C          0.71117000       0.05448000       0.94318000
    71  H          0.22206000       0.90876700       0.07490700
    72  H          0.77794000       0.09123300       0.92509300
    73  C          0.51373000       0.94432000      -0.00202000
    74  C          0.48627000       0.05568000       0.00202000
    75  C          0.44573000       0.77772000       0.02262000
    76  C          0.55427000       0.22228000       0.97738000
    77  O          0.18822000       0.75072000       0.82202000
    78  O          0.81178000       0.24928000       0.17798000
    79  H          0.23172400       0.75526000       0.75983500
    80  H          0.76827600       0.24474000       0.24016500
    81  H          0.23920900       0.75560200       0.85505100
    82  H          0.76079100       0.24439800       0.14494900
    83  N          0.85293000       0.45522000       0.75192000
    84  N          0.14707000       0.54478000       0.24808000
    85  H          0.85946500       0.48747400       0.80365900
    86  H          0.14053500       0.51252600       0.19634100
    87  H          0.84205700       0.39030200       0.75561600
    88  H          0.15794300       0.60969800       0.24438400
    89  N          0.85243000       0.45632000       0.58852000
    90  N          0.14757000       0.54368000       0.41148000
    91  H          0.84346300       0.39089400       0.59043300
    92  H          0.15653700       0.60910600       0.40956700
    93  H          0.85678400       0.49008900       0.53357400
    94  H          0.14321600       0.50991100       0.46642600
    95  N          0.87563000       0.60222000       0.66372000
    96  N          0.12437000       0.39778000       0.33628000
    97  H          0.88212900       0.63412000       0.71565600
    98  H          0.11787100       0.36588000       0.28434400
    99  H          0.87991100       0.63526500       0.60838800
   100  H          0.12008900       0.36473500       0.39161200
   101  C          0.85923000       0.50423000       0.66873000
   102  C          0.14077000       0.49577000       0.33127000
   103  O          0.54053000       0.22192000       0.24772000
   104  O          0.45947000       0.77808000       0.75228000
   105  C          0.62203000      -0.00097000       0.22783000
   106  C          0.37797000       0.00097000       0.77217000
   107  H          0.68632600       0.03783100       0.21674400
   108  H          0.31367400       0.96216900       0.78325600
   109  C          0.49843000       0.05103000       0.25173000
   110  C          0.50157000       0.94897000       0.74827000
   111  C          0.40294000      -0.00607000       0.26853000
   112  C          0.59706000       0.00607000       0.73147000
   113  H          0.31796000       0.02899200       0.28551700
   114  H          0.68204000       0.97100800       0.71448300
   115  C          0.55724000       0.83483000       0.23583000
   116  C          0.44276000       0.16517000       0.76417000
   117  H          0.57768700       0.76070700       0.22993600
   118  H          0.42231300       0.23929300       0.77006400
   119  C          0.46544000       0.16533000       0.26053000
   120  C          0.53456000       0.83467000       0.73947000
   121  H          0.37941200       0.19727800       0.27734500
   122  H          0.62058800       0.80272200       0.72265500
   123  C          0.65214000       0.89133000       0.21983000
   124  C          0.34786000       0.10867000       0.78017000
   125  H          0.73684500       0.85601500       0.20365200
   126  H          0.26315500       0.14398500       0.79634800
   127  C          0.43434000       0.88523000       0.26003000
   128  C          0.56566000       0.11477000       0.73997000
   129  H          0.37046500       0.84577700       0.27089900
   130  H          0.62953500       0.15422300       0.72910100
   131  O          0.04742000       0.86535190       0.46902000
   132  O          0.95258000       0.13464810       0.53098000
   133  H          0.99314800       0.82514200       0.47840800
   134  H          0.00685200       0.17485800       0.52159200
   135  H          0.11706200       0.82306000       0.46593200
   136  H          0.88293800       0.17694000       0.53406800
   137  N          0.85243000       0.46382000       0.25413000
   138  N          0.14757000       0.53618000       0.74587000
   139  H          0.84358100       0.39836600       0.25786700
   140  H          0.15641900       0.60163400       0.74213300
   141  H          0.85914100       0.49663500       0.30543500
   142  H          0.14085900       0.50336500       0.69456500
   143  N          0.86973000       0.61182000       0.16592000
   144  N          0.13027000       0.38818000       0.83408000
   145  H          0.87703500       0.64398200       0.21741100
   146  H          0.12296500       0.35601800       0.78258900
   147  H          0.87186400       0.64485200       0.11096900
   148  H          0.12813600       0.35514800       0.88903100
   149  N          0.84553000       0.46502000       0.09313000
   150  N          0.15447000       0.53498000       0.90687000
   151  H          0.83662300       0.39958400       0.09573900
   152  H          0.16337700       0.60041600       0.90426100
   153  H          0.84768500       0.49867800       0.03838200
   154  H          0.15231500       0.50132200       0.96161800
   155  C          0.85553000       0.51283000       0.17123000
   156  C          0.14447000       0.48717000       0.82877000
   157  N          0.56863000       0.40512000       0.73892000
   158  N          0.43137000       0.59488000       0.26108000
   159  H          0.58217300       0.37289800       0.79061000
   160  H          0.41782700       0.62710200       0.20939000
   161  H          0.58249700       0.36932000       0.68277200
   162  H          0.41750300       0.63068000       0.31722800
   163  N          0.50634000       0.55673000       0.66863000
   164  N          0.49366000       0.44327000       0.33137000
   165  H          0.47866000       0.62474600       0.67336000
   166  H          0.52134000       0.37525400       0.32664000
   167  H          0.52012700       0.52108300       0.61239400
   168  H          0.47987300       0.47891700       0.38760600
   169  N          0.50663000       0.56113000       0.82982000
   170  N          0.49337000       0.43887000       0.17018000
   171  H          0.47894900       0.62911600       0.83482400
   172  H          0.52105100       0.37088400       0.16517600
   173  H          0.52056300       0.52846600       0.88118900
   174  H          0.47943700       0.47153400       0.11881100
   175  C          0.52713000       0.50833000       0.74573000
   176  C          0.47287000       0.49167000       0.25427000
   177  O          0.00863000       0.84702000       0.07053000
   178  O          0.99137000       0.15298000       0.92947000
   179  H          0.08262900       0.80699300       0.05092900
   180  H          0.91737100       0.19300700       0.94907100
   181  H          0.97023700       0.82623100       0.03249200
   182  H          0.02976300       0.17376900       0.96750800
   183  N          0.03483000       0.95782000       0.82772000
   184  N          0.96517000       0.04218000       0.17228000
   185  H          0.03821900       0.00807800       0.86700500
   186  H          0.96178100      -0.00807800       0.13299500
   187  H          0.05372600       0.89217800       0.84176200
   188  H          0.94627400       0.10782200       0.15823800
   189  N          0.99337000       0.90482000       0.68943000
   190  N          0.00663000       0.09518000       0.31057000
   191  H          0.96928200       0.91995200       0.63683600
   192  H          0.03071800       0.08004800       0.36316400
   193  H          0.01238700       0.83923400       0.70372000
   194  H          0.98761300       0.16076600       0.29628000
   195  N          0.97297000       0.07922000       0.72583000
   196  N          0.02703000       0.92078000       0.27417000
   197  H          0.97620000       0.12963100       0.76489000
   198  H          0.02380000       0.87036900       0.23511000
   199  H          0.95074600       0.09425200       0.67234600
   200  H          0.04925400       0.90574800       0.32765400
   201  C          0.00133000       0.98113000       0.74723000
   202  C         -0.00133000       0.01887000       0.25277000
