data_BULHOH
_symmetry_space_group_name_H-M    'P1'
_symmetry_Int_Tables_number       1
loop_
_symmetry_equiv_pos_site_id
_symmetry_equiv_pos_as_xyz
1 x,y,z
_cell_length_a                   14.9782
_cell_length_b                   10.078514
_cell_length_c                   18.5413
_cell_angle_alpha                90.0
_cell_angle_beta                 103.33801
_cell_angle_gamma                90.0
loop_
_atom_site_label
_atom_site_type_symbol
_atom_site_fract_x
_atom_site_fract_y
_atom_site_fract_z
     1  P          0.21208200       0.68317400       0.20124719
     2  P          0.78791800       0.18317400       0.29875281
     3  P          0.78791800       0.31682600       0.79875281
     4  P          0.21208200       0.81682600       0.70124719
     5  O          0.22710700       0.75344110       0.13377600
     6  O          0.77289300       0.25344110       0.36622400
     7  O          0.77289300       0.24655890       0.86622400
     8  O          0.22710700       0.74655890       0.63377600
     9  C          0.09337100       0.64412150       0.19385800
    10  C          0.90662900       0.14412150       0.30614200
    11  C          0.90662900       0.35587850       0.80614200
    12  C          0.09337100       0.85587850       0.69385800
    13  C          0.22317100       0.76118150       0.34951800
    14  C          0.77682900       0.26118150       0.15048200
    15  C          0.77682900       0.23881850       0.65048200
    16  C          0.22317100       0.73881850       0.84951800
    17  H          0.18100000       0.69470000       0.35240000
    18  H          0.81900000       0.19470000       0.14760000
    19  H          0.81900000       0.30530000       0.64760000
    20  H          0.18100000       0.80530000       0.85240000
    21  C          0.25035100       0.78336140       0.28315800
    22  C          0.74964900       0.28336140       0.21684200
    23  C          0.74964900       0.21663860       0.71684200
    24  C          0.25035100       0.71663860       0.78315800
    25  C          0.27502100       0.52965150       0.21665800
    26  C          0.72497900       0.02965150       0.28334200
    27  C          0.72497900       0.47034850       0.78334200
    28  C          0.27502100       0.97034850       0.71665800
    29  C          0.25983100       0.83961150       0.41124800
    30  C          0.74016900       0.33961150       0.08875200
    31  C          0.74016900       0.16038850       0.58875200
    32  C          0.25983100       0.66038850       0.91124800
    33  H          0.24100000       0.82650000       0.45510000
    34  H          0.75900000       0.32650000       0.04490000
    35  H          0.75900000       0.17350000       0.54490000
    36  H          0.24100000       0.67350000       0.95510000
    37  C          0.26527100       0.44124150       0.27272800
    38  C          0.73472900       0.94124150       0.22727200
    39  C          0.73472900       0.55875850       0.72727200
    40  C          0.26527100       0.05875850       0.77272800
    41  H          0.22470000       0.46040000       0.30250000
    42  H          0.77530000       0.96040000       0.19750000
    43  H          0.77530000       0.53960000       0.69750000
    44  H          0.22470000       0.03960000       0.80250000
    45  C          0.03419100       0.73882160       0.21208900
    46  C          0.96580900       0.23882160       0.28791100
    47  C          0.96580900       0.26117840       0.78791100
    48  C          0.03419100       0.76117840       0.71208900
    49  H          0.05770000       0.81760000       0.23490000
    50  H          0.94230000       0.31760000       0.26510000
    51  H          0.94230000       0.18240000       0.76510000
    52  H          0.05770000       0.68240000       0.73490000
    53  C          0.31372110       0.88340160       0.27988900
    54  C          0.68627890       0.38340160       0.22011100
    55  C          0.68627890       0.11659840       0.72011100
    56  C          0.31372110       0.61659840       0.77988900
    57  H          0.33100000       0.89960000       0.23560000
    58  H          0.66900000       0.39960000       0.26440000
    59  H          0.66900000       0.10040000       0.76440000
    60  H          0.33100000       0.60040000       0.73560000
    61  C          0.31643110       0.32468150       0.28374900
    62  C          0.68356890       0.82468150       0.21625100
    63  C          0.68356890       0.67531850       0.71625100
    64  C          0.31643110       0.17531850       0.78374900
    65  H          0.30980000       0.26560000       0.32070000
    66  H          0.69020000       0.76560000       0.17930000
    67  H          0.69020000       0.73440000       0.67930000
    68  H          0.30980000       0.23440000       0.82070000
    69  C          0.33662100       0.50048170       0.17241800
    70  C          0.66337900       0.00048170       0.32758200
    71  C          0.66337900       0.49951830       0.82758200
    72  C          0.33662100      -0.00048170       0.67241800
    73  H          0.34350000       0.55880000       0.13520000
    74  H          0.65650000       0.05880000       0.36480000
    75  H          0.65650000       0.44120000       0.86480000
    76  H          0.34350000       0.94120000       0.63520000
    77  C          0.32417100       0.93709150       0.40767900
    78  C          0.67582900       0.43709150       0.09232100
    79  C          0.67582900       0.06290850       0.59232100
    80  C          0.32417100       0.56290850       0.90767900
    81  H          0.34920000      -0.01220000       0.44940000
    82  H          0.65080000       0.48780000       0.05060000
    83  H          0.65080000       0.01220000       0.55060000
    84  H          0.34920000       0.51220000       0.94940000
    85  C          0.35117110       0.95896160       0.34210900
    86  C          0.64882890       0.45896160       0.15789100
    87  C          0.64882890       0.04103840       0.65789100
    88  C          0.35117110       0.54103840       0.84210900
    89  H          0.39430000       0.02420000       0.33970000
    90  H          0.60570000       0.52420000       0.16030000
    91  H          0.60570000       0.97580000       0.66030000
    92  H          0.39430000       0.47580000       0.83970000
    93  C          0.37747120       0.29642170       0.23952900
    94  C          0.62252880       0.79642170       0.26047100
    95  C          0.62252880       0.70357830       0.76047100
    96  C          0.37747120       0.20357830       0.73952900
    97  H          0.41160000       0.21850000       0.24700000
    98  H          0.58840000       0.71850000       0.25300000
    99  H          0.58840000       0.78150000       0.75300000
   100  H          0.41160000       0.28150000       0.74700000
   101  C          0.05736110       0.52552160       0.15998900
   102  C          0.94263890       0.02552160       0.34001100
   103  C          0.94263890       0.47447840       0.84001100
   104  C          0.05736110       0.97447840       0.65998900
   105  H          0.09630000       0.46150000       0.14800000
   106  H          0.90370000       0.96150000       0.35200000
   107  H          0.90370000       0.53850000       0.85200000
   108  H          0.09630000       0.03850000       0.64800000
   109  C          0.90490890       0.59839180       0.16189900
   110  C          0.09509110       0.09839180       0.33810100
   111  C          0.09509110       0.40160820       0.83810100
   112  C          0.90490890       0.90160820       0.66189900
   113  H          0.84190000       0.58370000       0.15080000
   114  H          0.15810000       0.08370000       0.34920000
   115  H          0.15810000       0.41630000       0.84920000
   116  H          0.84190000       0.91630000       0.65080000
   117  C          0.96267890       0.50342180       0.14413900
   118  C          0.03732110       0.00342180       0.35586100
   119  C          0.03732110       0.49657820       0.85586100
   120  C          0.96267890      -0.00342180       0.64413900
   121  H          0.93860000       0.42470000       0.12160000
   122  H          0.06140000       0.92470000       0.37840000
   123  H          0.06140000       0.57530000       0.87840000
   124  H          0.93860000       0.07530000       0.62160000
   125  C          0.94027890       0.71571180       0.19619100
   126  C          0.05972110       0.21571180       0.30380900
   127  C          0.05972110       0.28428820       0.80380900
   128  C          0.94027890       0.78428820       0.69619100
   129  H          0.90100000       0.77890000       0.20850000
   130  H          0.09900000       0.27890000       0.29150000
   131  H          0.09900000       0.22110000       0.79150000
   132  H          0.90100000       0.72110000       0.70850000
   133  C          0.38750110       0.38393180       0.18434900
   134  C          0.61249890       0.88393180       0.31565100
   135  C          0.61249890       0.61606820       0.81565100
   136  C          0.38750110       0.11606820       0.68434900
   137  H          0.42860000       0.36460000       0.15510000
   138  H          0.57140000       0.86460000       0.34490000
   139  H          0.57140000       0.63540000       0.84490000
   140  H          0.42860000       0.13540000       0.65510000
   141  O          0.19048700       0.03724110       0.93269400
   142  O          0.80951300       0.53724110       0.56730600
   143  O          0.80951300       0.96275890       0.06730600
   144  O          0.19048700       0.46275890       0.43269400
   145  N          0.13033900       0.87749130      -0.00305700
   146  N          0.86966100       0.37749130       0.50305700
   147  N          0.86966100       0.12250870       0.00305700
   148  N          0.13033900       0.62250870       0.49694300
   149  N          0.27666900       0.94639130       0.04028700
   150  N          0.72333100       0.44639130       0.45971300
   151  N          0.72333100       0.05360870       0.95971300
   152  N          0.27666900       0.55360870       0.54028700
   153  C          0.48833100       0.26453160       0.96545100
   154  C          0.51166900       0.76453160       0.53454900
   155  C          0.51166900       0.73546840       0.03454900
   156  C          0.48833100       0.23546840       0.46545100
   157  C          0.46411100       0.17408140       0.01811800
   158  C          0.53588900       0.67408140       0.48188200
   159  C          0.53588900       0.82591860       0.98188200
   160  C          0.46411100       0.32591860       0.51811800
   161  C          0.37842100       0.11183150       0.00124800
   162  C          0.62157900       0.61183150       0.49875200
   163  C          0.62157900       0.88816850      -0.00124800
   164  C          0.37842100       0.38816850       0.50124800
   165  H          0.33550000       0.13220000       0.95780000
   166  H          0.66450000       0.63220000       0.54220000
   167  H          0.66450000       0.86780000       0.04220000
   168  H          0.33550000       0.36780000       0.45780000
   169  C          0.42443100      -0.00923840       0.11611800
   170  C          0.57556900       0.49076160       0.38388200
   171  C          0.57556900       0.00923840       0.88388200
   172  C          0.42443100       0.50923840       0.61611800
   173  H          0.41200000       0.92700000       0.14870000
   174  H          0.58800000       0.42700000       0.35130000
   175  H          0.58800000       0.07300000       0.85130000
   176  H          0.41200000       0.57300000       0.64870000
   177  C          0.35878100       0.01857150       0.05086800
   178  C          0.64121900       0.51857150       0.44913200
   179  C          0.64121900       0.98142850       0.94913200
   180  C          0.35878100       0.48142850       0.55086800
   181  C          0.19843100       0.96132150       0.98524200
   182  C          0.80156900       0.46132150       0.51475800
   183  C          0.80156900       0.03867850       0.01475800
   184  C          0.19843100       0.53867850       0.48524200
   185  C          0.89097890       0.76609170       0.94463200
   186  C          0.10902110       0.26609170       0.55536800
   187  C          0.10902110       0.23390830       0.05536800
   188  C          0.89097890       0.73390830       0.44463200
   189  C          0.00264110       0.94438150       0.89298200
   190  C         -0.00264110       0.44438150       0.60701800
   191  C         -0.00264110       0.05561850       0.10701800
   192  C          0.00264110       0.55561850       0.39298200
   193  H          0.03950000       0.00450000       0.87510000
   194  H          0.96050000       0.50450000       0.62490000
   195  H          0.96050000      -0.00450000       0.12490000
   196  H          0.03950000       0.49550000       0.37510000
   197  C          0.52889100       0.14876160       0.08382800
   198  C          0.47110900       0.64876160       0.41617200
   199  C          0.47110900       0.85123840       0.91617200
   200  C          0.52889100       0.35123840       0.58382800
   201  H          0.58500000       0.19260000       0.09450000
   202  H          0.41500000       0.69260000       0.40550000
   203  H          0.41500000       0.80740000       0.90550000
   204  H          0.58500000       0.30740000       0.59450000
   205  C          0.50776100       0.05699160       0.13276800
   206  C          0.49223900       0.55699160       0.36723200
   207  C          0.49223900       0.94300840       0.86723200
   208  C          0.50776100       0.44300840       0.63276800
   209  H          0.54970000       0.03960000       0.17720000
   210  H          0.45030000       0.53960000       0.32280000
   211  H          0.45030000       0.96040000       0.82280000
   212  H          0.54970000       0.46040000       0.67720000
   213  C          0.03932100       0.86877150       0.95617200
   214  C          0.96067900       0.36877150       0.54382800
   215  C          0.96067900       0.13122850       0.04382800
   216  C          0.03932100       0.63122850       0.45617200
   217  C          0.98270890       0.77927160       0.98204200
   218  C          0.01729110       0.27927160       0.51795800
   219  C          0.01729110       0.22072840       0.01795800
   220  C          0.98270890       0.72072840       0.48204200
   221  H          0.00610000       0.72860000       0.02410000
   222  H         -0.00610000       0.22860000       0.47590000
   223  H         -0.00610000       0.27140000       0.97590000
   224  H          0.00610000       0.77140000       0.52410000
   225  N          0.51079100       0.33449150       0.92403100
   226  N          0.48920900       0.83449150       0.57596900
   227  N          0.48920900       0.66550850       0.07596900
   228  N          0.51079100       0.16550850       0.42403100
   229  C          0.85421890       0.84049170       0.88165100
   230  C          0.14578110       0.34049170       0.61834900
   231  C          0.14578110       0.15950830       0.11834900
   232  C          0.85421890       0.65950830       0.38165100
   233  H          0.79310000       0.83070000       0.85680000
   234  H          0.20690000       0.33070000       0.64320000
   235  H          0.20690000       0.16930000       0.14320000
   236  H          0.79310000       0.66930000       0.35680000
   237  C          0.91063890       0.92921160       0.85697100
   238  C          0.08936110       0.42921160       0.64302900
   239  C          0.08936110       0.07078840       0.14302900
   240  C          0.91063890       0.57078840       0.35697100
   241  H          0.88670000       0.98030000       0.81520000
   242  H          0.11330000       0.48030000       0.68480000
   243  H          0.11330000       0.01970000       0.18480000
   244  H          0.88670000       0.51970000       0.31520000
   245  C          0.83293870       0.67202000       0.97070100
   246  C          0.16706130       0.17202000       0.52929900
   247  C          0.16706130       0.32798000       0.02929900
   248  C          0.83293870       0.82798000       0.47070100
   249  N          0.78617870       0.59592000       0.98874900
   250  N          0.21382130       0.09592000       0.51125100
   251  N          0.21382130       0.40408000       0.01125100
   252  N          0.78617870       0.90408000       0.48874900
   253  H          0.27241100       0.89027000       0.07422000
   254  H          0.72758900       0.39027000       0.42578000
   255  H          0.72758900       0.10973000       0.92578000
   256  H          0.27241100       0.60973000       0.57422000
   257  H          0.14398000       0.83016000       0.03566140
   258  H          0.85602000       0.33016000       0.46433860
   259  H          0.85602000       0.16984000       0.96433860
   260  H          0.14398000       0.66984000       0.53566140
