data_BULKOK
_symmetry_space_group_name_H-M    'P1'
_symmetry_Int_Tables_number       1
loop_
_symmetry_equiv_pos_site_id
_symmetry_equiv_pos_as_xyz
1 x,y,z
_cell_length_a                   8.75776
_cell_length_b                   6.80835
_cell_length_c                   19.662416
_cell_angle_alpha                90.0
_cell_angle_beta                 105.3387
_cell_angle_gamma                90.0
loop_
_atom_site_label
_atom_site_type_symbol
_atom_site_fract_x
_atom_site_fract_y
_atom_site_fract_z
     1  N          0.13352000       0.91268000       0.90711100
     2  N          0.86648000       0.41268000       0.59288900
     3  N          0.86648000       0.08732000       0.09288900
     4  N          0.13352000       0.58732000       0.40711100
     5  C          0.25102000      -0.00243000       0.95433890
     6  C          0.74898000       0.49757000       0.54566110
     7  C          0.74898000       0.00243000       0.04566110
     8  C          0.25102000       0.50243000       0.45433890
     9  H          0.34950000       0.93640000       0.96650000
    10  H          0.65050000       0.43640000       0.53350000
    11  H          0.65050000       0.06360000       0.03350000
    12  H          0.34950000       0.56360000       0.46650000
    13  C          0.23322000       0.17317000       0.98625890
    14  C          0.76678000       0.67317000       0.51374110
    15  C          0.76678000       0.82683000       0.01374110
    16  C          0.23322000       0.32683000       0.48625890
    17  H          0.31900000       0.22860000       0.01900000
    18  H          0.68100000       0.72860000       0.48100000
    19  H          0.68100000       0.77140000       0.98100000
    20  H          0.31900000       0.27140000       0.51900000
    21  C          0.08782000       0.26717000       0.96957900
    22  C          0.91218000       0.76717000       0.53042100
    23  C          0.91218000       0.73283000       0.03042100
    24  C          0.08782000       0.23283000       0.46957900
    25  C          0.96598000       0.17567000       0.92004890
    26  C          0.03402000       0.67567000       0.57995110
    27  C          0.03402000       0.82433000       0.07995110
    28  C          0.96598000       0.32433000       0.42004890
    29  H          0.86600000       0.23270000       0.90690000
    30  H          0.13400000       0.73270000       0.59310000
    31  H          0.13400000       0.76730000       0.09310000
    32  H          0.86600000       0.26730000       0.40690000
    33  C         -0.00692000       0.00207000       0.89063890
    34  C          0.00692000       0.50207000       0.60936110
    35  C          0.00692000      -0.00207000       0.10936110
    36  C         -0.00692000       0.49793000       0.39063890
    37  H          0.90980000       0.94330000       0.85750000
    38  H          0.09020000       0.44330000       0.64250000
    39  H          0.09020000       0.05670000       0.14250000
    40  H          0.90980000       0.55670000       0.35750000
    41  C          0.06672000       0.45257000       0.00344100
    42  C          0.93328000       0.95257000       0.49655900
    43  C          0.93328000       0.54743000      -0.00344100
    44  C          0.06672000       0.04743000       0.50344100
    45  H          0.15700000       0.50890000       0.03280000
    46  H          0.84300000       0.00890000       0.46720000
    47  H          0.84300000       0.49110000       0.96720000
    48  H          0.15700000      -0.00890000       0.53280000
    49  O          0.40455170       0.57578000       0.91774200
    50  O          0.59544830       0.07578000       0.58225800
    51  O          0.59544830       0.42422000       0.08225800
    52  O          0.40455170       0.92422000       0.41774200
    53  O          0.16576160       0.59540810       0.84280300
    54  O          0.83423840       0.09540810       0.65719700
    55  O          0.83423840       0.40459190       0.15719700
    56  O          0.16576160       0.90459190       0.34280300
    57  H          0.16180000       0.70510000       0.86700000
    58  H          0.83820000       0.20510000       0.63300000
    59  H          0.83820000       0.29490000       0.13300000
    60  H          0.16180000       0.79490000       0.36700000
    61  O          0.58133170       0.28398000       0.91089100
    62  O          0.41866830       0.78398000       0.58910900
    63  O          0.41866830       0.71602000       0.08910900
    64  O          0.58133170       0.21602000       0.41089100
    65  H          0.55490000       0.38780000       0.92560000
    66  H          0.44510000       0.88780000       0.57440000
    67  H          0.44510000       0.61220000       0.07440000
    68  H          0.55490000       0.11220000       0.42560000
    69  C          0.30042000       0.50947000       0.86765890
    70  C          0.69958000       0.00947000       0.63234110
    71  C          0.69958000       0.49053000       0.13234110
    72  C          0.30042000      -0.00947000       0.36765890
    73  C          0.32262000       0.32277000       0.83293900
    74  C          0.67738000       0.82277000       0.66706100
    75  C          0.67738000       0.67723000       0.16706100
    76  C          0.32262000       0.17723000       0.33293900
    77  C          0.20452000       0.24477000       0.77809900
    78  C          0.79548000       0.74477000       0.72190100
    79  C          0.79548000       0.75523000       0.22190100
    80  C          0.20452000       0.25523000       0.27809900
    81  H          0.10910000       0.31190000       0.76240000
    82  H          0.89090000       0.81190000       0.73760000
    83  H          0.89090000       0.68810000       0.23760000
    84  H          0.10910000       0.18810000       0.26240000
    85  C          0.22533000       0.07067000       0.74664890
    86  C          0.77467000       0.57067000       0.75335110
    87  C          0.77467000       0.92933000       0.25335110
    88  C          0.22533000       0.42933000       0.24664890
    89  H          0.14540000       0.02030000       0.70980000
    90  H          0.85460000       0.52030000       0.79020000
    91  H          0.85460000      -0.02030000       0.29020000
    92  H          0.14540000       0.47970000       0.20980000
    93  C          0.36673000       0.97127000       0.77056870
    94  C          0.63327000       0.47127000       0.72943130
    95  C          0.63327000       0.02873000       0.22943130
    96  C          0.36673000       0.52873000       0.27056870
    97  H          0.38170000       0.85340000       0.74930000
    98  H          0.61830000       0.35340000       0.75070000
    99  H          0.61830000       0.14660000       0.25070000
   100  H          0.38170000       0.64660000       0.24930000
   101  C          0.48483000       0.04267000       0.82473860
   102  C          0.51517000       0.54267000       0.67526140
   103  C          0.51517000       0.95733000       0.17526140
   104  C          0.48483000       0.45733000       0.32473860
   105  H          0.57930000       0.97380000       0.84040000
   106  H          0.42070000       0.47380000       0.65960000
   107  H          0.42070000       0.02620000       0.15960000
   108  H          0.57930000       0.52620000       0.34040000
   109  C          0.46322000       0.21897000       0.85642890
   110  C          0.53678000       0.71897000       0.64357110
   111  C          0.53678000       0.78103000       0.14357110
   112  C          0.46322000       0.28103000       0.35642890
