data_BULKUQ
_symmetry_space_group_name_H-M    'P1'
_symmetry_Int_Tables_number       1
loop_
_symmetry_equiv_pos_site_id
_symmetry_equiv_pos_as_xyz
1 x,y,z
_cell_length_a                   5.31051
_cell_length_b                   8.850717
_cell_length_c                   11.9802
_cell_angle_alpha                92.2643
_cell_angle_beta                 94.8263
_cell_angle_gamma                90.1573
loop_
_atom_site_label
_atom_site_type_symbol
_atom_site_fract_x
_atom_site_fract_y
_atom_site_fract_z
     1  I          0.08966400       0.01448200       0.26203919
     2  I          0.91033600      -0.01448200       0.73796081
     3  F          0.75846000       0.11763000       0.43043000
     4  F          0.24154000       0.88237000       0.56957000
     5  F          0.70825000       0.24523000       0.28083000
     6  F          0.29175000       0.75477000       0.71917000
     7  F          0.23505000       0.24763000       0.47472000
     8  F          0.76495000       0.75237000       0.52528000
     9  F          0.16235000       0.37793000       0.32632000
    10  F          0.83765000       0.62207000       0.67368000
    11  F          0.83676000       0.36363000       0.56692000
    12  F          0.16324000       0.63637000       0.43308000
    13  F          0.71604000       0.48123000       0.41682000
    14  F          0.28396000       0.51877000       0.58318000
    15  C          0.88317000       0.18175000       0.35243000
    16  C          0.11683000       0.81825000       0.64757000
    17  C          0.05236000       0.30874000       0.40803000
    18  C          0.94764000       0.69126000       0.59197000
    19  C          0.91797000       0.43124000       0.47873000
    20  C          0.08203000       0.56876000       0.52127000
    21  N          0.37177000       0.80674000       0.14423000
    22  N          0.62823000       0.19326000       0.85577000
    23  C          0.52529000       0.71175000       0.19914000
    24  C          0.47471000       0.28825000       0.80086000
    25  H          0.50920000       0.70240000       0.27530000
    26  H          0.49080000       0.29760000       0.72470000
    27  C          0.70489000       0.62685000       0.15154000
    28  C          0.29511000       0.37315000       0.84846000
    29  H          0.80520000       0.56150000       0.19470000
    30  H          0.19480000       0.43850000       0.80530000
    31  C          0.73687000       0.63814000       0.03873000
    32  C          0.26313000       0.36186000       0.96127000
    33  C          0.57878000       0.73835000       0.98066000
    34  C          0.42122000       0.26165000       0.01934000
    35  H          0.59200000       0.75180000       0.90480000
    36  H          0.40800000       0.24820000       0.09520000
    37  C          0.40138000       0.81795000       0.03714000
    38  C          0.59862000       0.18205000       0.96286000
    39  H          0.29600000       0.88350000      -0.00350000
    40  H          0.70400000       0.11650000       0.00350000
    41  C          0.92368000       0.55225000       0.97857000
    42  C          0.07632000       0.44775000       0.02143000
    43  H          0.93520000       0.57310000       0.90380000
    44  H          0.06480000       0.42690000       0.09620000
