data_BULKAW
_symmetry_space_group_name_H-M    'P1'
_symmetry_Int_Tables_number       1
loop_
_symmetry_equiv_pos_site_id
_symmetry_equiv_pos_as_xyz
1 x,y,z
_cell_length_a                   10.052
_cell_length_b                   9.712
_cell_length_c                   9.002
_cell_angle_alpha                90.0
_cell_angle_beta                 100.224
_cell_angle_gamma                90.0
loop_
_atom_site_label
_atom_site_type_symbol
_atom_site_fract_x
_atom_site_fract_y
_atom_site_fract_z
     1  I          0.66663400       0.01219500       0.19138500
     2  I          0.33336600       0.51219500       0.30861500
     3  I          0.33336600      -0.01219500       0.80861500
     4  I          0.66663400       0.48780500       0.69138500
     5  C          0.56607000       0.00395000       0.37918000
     6  C          0.43393000       0.50395000       0.12082000
     7  C          0.43393000      -0.00395000       0.62082000
     8  C          0.56607000       0.49605000       0.87918000
     9  C          0.49235000       0.88804000       0.40265000
    10  C          0.50765000       0.38804000       0.09735000
    11  C          0.50765000       0.11196000       0.59735000
    12  C          0.49235000       0.61196000       0.90265000
    13  H          0.48770000       0.81360000       0.33700000
    14  H          0.51230000       0.31360000       0.16300000
    15  H          0.51230000       0.18640000       0.66300000
    16  H          0.48770000       0.68640000       0.83700000
    17  C          0.57445000       0.11636000       0.47565000
    18  C          0.42555000       0.61636000       0.02435000
    19  C          0.42555000       0.88364000       0.52435000
    20  C          0.57445000       0.38364000       0.97565000
    21  H          0.62420000       0.19360000       0.45860000
    22  H          0.37580000       0.69360000       0.04140000
    23  H          0.37580000       0.80640000       0.54140000
    24  H          0.62420000       0.30640000       0.95860000
    25  N          0.20759000       0.98203000       0.09619000
    26  N          0.79241000       0.48203000       0.40381000
    27  N          0.79241000       0.01797000       0.90381000
    28  N          0.20759000       0.51797000       0.59619000
    29  N          0.03176000       0.04577000       0.48206000
    30  N          0.96824000       0.54577000       0.01794000
    31  N          0.96824000       0.95423000       0.51794000
    32  N          0.03176000       0.45423000       0.98206000
    33  C          0.23326000       0.08998000       0.18377000
    34  C          0.76674000       0.58998000       0.31623000
    35  C          0.76674000       0.91002000       0.81623000
    36  C          0.23326000       0.41002000       0.68377000
    37  H          0.29270000       0.15540000       0.15810000
    38  H          0.70730000       0.65540000       0.34190000
    39  H          0.70730000       0.84460000       0.84190000
    40  H          0.29270000       0.34460000       0.65810000
    41  C          0.17836000       0.11316000       0.31065000
    42  C          0.82164000       0.61316000       0.18935000
    43  C          0.82164000       0.88684000       0.68935000
    44  C          0.17836000       0.38684000       0.81065000
    45  H          0.19980000       0.19210000       0.36840000
    46  H          0.80020000       0.69210000       0.13160000
    47  H          0.80020000       0.80790000       0.63160000
    48  H          0.19980000       0.30790000       0.86840000
    49  C          0.08989000       0.01546000       0.35068000
    50  C          0.91011000       0.51546000       0.14932000
    51  C          0.91011000       0.98454000       0.64932000
    52  C          0.08989000       0.48454000       0.85068000
    53  C          0.06256000       0.89812000       0.25786000
    54  C          0.93744000       0.39812000       0.24214000
    55  C          0.93744000       0.10188000       0.74214000
    56  C          0.06256000       0.60188000       0.75786000
    57  H          0.00540000       0.82900000       0.28080000
    58  H         -0.00540000       0.32900000       0.21920000
    59  H         -0.00540000       0.17100000       0.71920000
    60  H          0.00540000       0.67100000       0.78080000
    61  C          0.12307000       0.88871000       0.13167000
    62  C          0.87693000       0.38871000       0.36833000
    63  C          0.87693000       0.11129000       0.86833000
    64  C          0.12307000       0.61129000       0.63167000
    65  H          0.10310000       0.81290000       0.06850000
    66  H          0.89690000       0.31290000       0.43150000
    67  H          0.89690000       0.18710000       0.93150000
    68  H          0.10310000       0.68710000       0.56850000
