data_BULKEA
_symmetry_space_group_name_H-M    'P1'
_symmetry_Int_Tables_number       1
loop_
_symmetry_equiv_pos_site_id
_symmetry_equiv_pos_as_xyz
1 x,y,z
_cell_length_a                   6.4144
_cell_length_b                   8.3585
_cell_length_c                   9.2026
_cell_angle_alpha                82.9829
_cell_angle_beta                 70.9799
_cell_angle_gamma                78.6789
loop_
_atom_site_label
_atom_site_type_symbol
_atom_site_fract_x
_atom_site_fract_y
_atom_site_fract_z
     1  I          0.33448400       0.18073300       0.15755300
     2  I          0.66551600       0.81926700       0.84244700
     3  F          0.80175000       0.31943000       0.26103000
     4  F          0.19825000       0.68057000       0.73897000
     5  F          0.45274000       0.43983000       0.85767000
     6  F          0.54726000       0.56017000       0.14233000
     7  C          0.90242000       0.40856000       0.13165000
     8  C          0.09758000       0.59144000       0.86835000
     9  C          0.13558000       0.37245000       0.06365000
    10  C          0.86442000       0.62755000       0.93635000
    11  C          0.23118000       0.46826000       0.93055000
    12  C          0.76882000       0.53174000       0.06945000
    13  N          0.39278000       0.07725000       0.71615000
    14  N          0.60722000       0.92275000       0.28385000
    15  N          0.95453000       0.44675000       0.55155000
    16  N          0.04547000       0.55325000       0.44845000
    17  C          0.16769000       0.09377000       0.77546000
    18  C          0.83231000       0.90623000       0.22454000
    19  H          0.10640000       0.01910000       0.85770000
    20  H          0.89360000       0.98090000       0.14230000
    21  C          0.01988000       0.21426000       0.72275000
    22  C          0.98012000       0.78574000       0.27725000
    23  H          0.86260000       0.22040000       0.76690000
    24  H          0.13740000       0.77960000       0.23310000
    25  C          0.10998000       0.32556000       0.60315000
    26  C          0.89002000       0.67444000       0.39685000
    27  C          0.34538000       0.31236000       0.53825000
    28  C          0.65462000       0.68764000       0.46175000
    29  H          0.41170000       0.38550000       0.45660000
    30  H          0.58830000       0.61450000       0.54340000
    31  C          0.47609000       0.18417000       0.60156000
    32  C          0.52391000       0.81583000       0.39844000
    33  H          0.63400000       0.17330000       0.55960000
    34  H          0.36600000       0.82670000       0.44040000
