data_BUNFUN
_symmetry_space_group_name_H-M    'P1'
_symmetry_Int_Tables_number       1
loop_
_symmetry_equiv_pos_site_id
_symmetry_equiv_pos_as_xyz
1 x,y,z
_cell_length_a                   4.41754
_cell_length_b                   12.587813
_cell_length_c                   13.427414
_cell_angle_alpha                80.8274
_cell_angle_beta                 82.6723
_cell_angle_gamma                87.8094
loop_
_atom_site_label
_atom_site_type_symbol
_atom_site_fract_x
_atom_site_fract_y
_atom_site_fract_z
     1  C          0.42107000       0.29663000       0.36362000
     2  C          0.57893000       0.70337000       0.63638000
     3  O          0.51846000       0.31942000       0.44741160
     4  O          0.48154000       0.68058000       0.55258840
     5  H          0.39890000       0.27630000       0.50530000
     6  H          0.60110000       0.72370000       0.49470000
     7  C          0.52587000       0.35792000       0.27012000
     8  C          0.47413000       0.64208000       0.72988000
     9  F          0.71804000       0.43861150       0.26876140
    10  F          0.28196000       0.56138850       0.73123860
    11  C          0.43977000       0.33732000       0.18032000
    12  C          0.56023000       0.66268000       0.81968000
    13  F          0.54575000       0.40086150       0.09433130
    14  F          0.45425000       0.59913850       0.90566870
    15  C          0.24697000       0.25523000       0.17812000
    16  C          0.75303000       0.74477000       0.82188000
    17  Br         0.13777700       0.22463300       0.05528200
    18  Br         0.86222300       0.77536700       0.94471800
    19  C          0.13917000       0.19443000       0.27042000
    20  C          0.86083000       0.80557000       0.72958000
    21  F          0.94736000       0.11337160       0.27309140
    22  F          0.05264000       0.88662840       0.72690860
    23  C          0.22647000       0.21483000       0.35962000
    24  C          0.77353000       0.78517000       0.64038000
    25  F          0.12055000       0.15136160       0.44743130
    26  F          0.87945000       0.84863840       0.55256870
    27  N          0.26166000       0.24492000       0.63431180
    28  N          0.73834000       0.75508000       0.36568820
    29  C          0.06077000       0.30982000       0.67852000
    30  C          0.93923000       0.69018000       0.32148000
    31  C          0.96263000       0.28763000       0.78282000
    32  C          0.03737000       0.71237000       0.21718000
    33  N          0.06946000       0.20042000       0.83937180
    34  N          0.93054000       0.79958000       0.16062820
    35  C          0.26947000       0.13512000       0.79522000
    36  C          0.73053000       0.86488000       0.20478000
    37  C          0.36867000       0.15713000       0.69082000
    38  C          0.63133000       0.84287000       0.30918000
    39  C          0.94962000       0.40623000       0.61152000
    40  C          0.05038000       0.59377000       0.38848000
    41  H          0.92070000       0.38650000       0.54570000
    42  H          0.07930000       0.61350000       0.45430000
    43  H          0.10060000       0.46330000       0.60120000
    44  H          0.89940000       0.53670000       0.39880000
    45  H          0.75520000       0.43210000       0.64370000
    46  H          0.24480000       0.56790000       0.35630000
    47  C          0.74512000       0.35993000       0.83592000
    48  C          0.25488000       0.64007000       0.16408000
    49  H          0.67600000       0.32380000       0.90480000
    50  H          0.32400000       0.67620000       0.09520000
    51  H          0.56900000       0.37680000       0.79830000
    52  H          0.43100000       0.62320000       0.20170000
    53  H          0.84760000       0.42660000       0.83960000
    54  H          0.15240000       0.57340000       0.16040000
    55  C          0.38928000       0.03983000       0.86212000
    56  C          0.61072000       0.96017000       0.13788000
    57  H          0.24710000       0.02320000       0.92450000
    58  H          0.75290000       0.97680000       0.07550000
    59  H          0.58920000       0.05650000       0.87930000
    60  H          0.41080000       0.94350000       0.12070000
    61  H          0.40950000       0.97760000       0.82600000
    62  H          0.59050000       0.02240000       0.17400000
    63  C          0.58798000       0.08503000       0.63752000
    64  C          0.41202000       0.91497000       0.36248000
    65  H          0.64720000       0.11950000       0.56730000
    66  H          0.35280000       0.88050000       0.43270000
    67  H          0.49040000       0.01640000       0.63740000
    68  H          0.50960000       0.98360000       0.36260000
    69  H          0.76970000       0.07200000       0.67290000
    70  H          0.23030000       0.92800000       0.32710000
