data_BUNHUP
_symmetry_space_group_name_H-M    'P1'
_symmetry_Int_Tables_number       1
loop_
_symmetry_equiv_pos_site_id
_symmetry_equiv_pos_as_xyz
1 x,y,z
_cell_length_a                   25.912516
_cell_length_b                   4.69253
_cell_length_c                   20.090912
_cell_angle_alpha                90.0
_cell_angle_beta                 103.4643
_cell_angle_gamma                90.0
loop_
_atom_site_label
_atom_site_type_symbol
_atom_site_fract_x
_atom_site_fract_y
_atom_site_fract_z
     1  Br         0.97516920       0.28914600       0.06381012
     2  Br         0.02483080       0.28914600       0.43618988
     3  Br         0.47516920       0.78914600       0.06381012
     4  Br         0.52483080       0.78914600       0.43618988
     5  Br         0.02483080       0.71085400       0.93618988
     6  Br         0.97516920       0.71085400       0.56381012
     7  Br         0.52483080       0.21085400       0.93618988
     8  Br         0.47516920       0.21085400       0.56381012
     9  C          0.11859800       0.71685000       0.17233110
    10  C          0.88140200       0.71685000       0.32766890
    11  C          0.61859800       0.21685000       0.17233110
    12  C          0.38140200       0.21685000       0.32766890
    13  C          0.88140200       0.28315000       0.82766890
    14  C          0.11859800       0.28315000       0.67233110
    15  C          0.38140200       0.78315000       0.82766890
    16  C          0.61859800       0.78315000       0.67233110
    17  O          0.15971600       0.55474000       0.20005900
    18  O          0.84028400       0.55474000       0.29994100
    19  O          0.65971600       0.05474000       0.20005900
    20  O          0.34028400       0.05474000       0.29994100
    21  O          0.84028400       0.44526000       0.79994100
    22  O          0.15971600       0.44526000       0.70005900
    23  O          0.34028400       0.94526000       0.79994100
    24  O          0.65971600       0.94526000       0.70005900
    25  H          0.15411100       0.45570000       0.23441500
    26  H          0.84588900       0.45570000       0.26558500
    27  H          0.65411100       0.95570000       0.23441500
    28  H          0.34588900       0.95570000       0.26558500
    29  H          0.84588900       0.54430000       0.76558500
    30  H          0.15411100       0.54430000       0.73441500
    31  H          0.34588900       0.04430000       0.76558500
    32  H          0.65411100       0.04430000       0.73441500
    33  C          0.12267800       0.91175000       0.12212120
    34  C          0.87732200       0.91175000       0.37787880
    35  C          0.62267800       0.41175000       0.12212120
    36  C          0.37732200       0.41175000       0.37787880
    37  C          0.87732200       0.08825000       0.87787880
    38  C          0.12267800       0.08825000       0.62212120
    39  C          0.37732200       0.58825000       0.87787880
    40  C          0.62267800       0.58825000       0.62212120
    41  F          0.16889500       0.93004000       0.10234800
    42  F          0.83110500       0.93004000       0.39765200
    43  F          0.66889500       0.43004000       0.10234800
    44  F          0.33110500       0.43004000       0.39765200
    45  F          0.83110500       0.06996000       0.89765200
    46  F          0.16889500       0.06996000       0.60234800
    47  F          0.33110500       0.56996000       0.89765200
    48  F          0.66889500       0.56996000       0.60234800
    49  C          0.08128800       0.08405000       0.09105110
    50  C          0.91871200       0.08405000       0.40894890
    51  C          0.58128800       0.58405000       0.09105110
    52  C          0.41871200       0.58405000       0.40894890
    53  C          0.91871200       0.91595000       0.90894890
    54  C          0.08128800       0.91595000       0.59105110
    55  C          0.41871200       0.41595000       0.90894890
    56  C          0.58128800       0.41595000       0.59105110
    57  F          0.08858600       0.26683000       0.04240800
    58  F          0.91141400       0.26683000       0.45759200
    59  F          0.58858600       0.76683000       0.04240800
    60  F          0.41141400       0.76683000       0.45759200
    61  F          0.91141400       0.73317000       0.95759200
    62  F          0.08858600       0.73317000       0.54240800
    63  F          0.41141400       0.23317000       0.95759200
    64  F          0.58858600       0.23317000       0.54240800
    65  C          0.03295800       0.06925000       0.10859110
    66  C          0.96704200       0.06925000       0.39140890
    67  C          0.53295800       0.56925000       0.10859110
    68  C          0.46704200       0.56925000       0.39140890
    69  C          0.96704200       0.93075000       0.89140890
    70  C          0.03295800       0.93075000       0.60859110
    71  C          0.46704200       0.43075000       0.89140890
    72  C          0.53295800       0.43075000       0.60859110
    73  C          0.02791800       0.87745000       0.15865110
    74  C          0.97208200       0.87745000       0.34134890
    75  C          0.52791800       0.37745000       0.15865110
    76  C          0.47208200       0.37745000       0.34134890
    77  C          0.97208200       0.12255000       0.84134890
    78  C          0.02791800       0.12255000       0.65865110
    79  C          0.47208200       0.62255000       0.84134890
    80  C          0.52791800       0.62255000       0.65865110
    81  F          0.98164500       0.85314000       0.17655700
    82  F          0.01835500       0.85314000       0.32344300
    83  F          0.48164500       0.35314000       0.17655700
    84  F          0.51835500       0.35314000       0.32344300
    85  F          0.01835500       0.14686000       0.82344300
    86  F          0.98164500       0.14686000       0.67655700
    87  F          0.51835500       0.64686000       0.82344300
    88  F          0.48164500       0.64686000       0.67655700
    89  C          0.06948800       0.70665000       0.18980110
    90  C          0.93051200       0.70665000       0.31019890
    91  C          0.56948800       0.20665000       0.18980110
    92  C          0.43051200       0.20665000       0.31019890
    93  C          0.93051200       0.29335000       0.81019890
    94  C          0.06948800       0.29335000       0.68980110
    95  C          0.43051200       0.79335000       0.81019890
    96  C          0.56948800       0.79335000       0.68980110
    97  F          0.06272500       0.51593000       0.23689700
    98  F          0.93727500       0.51593000       0.26310300
    99  F          0.56272500       0.01593000       0.23689700
   100  F          0.43727500       0.01593000       0.26310300
   101  F          0.93727500       0.48407000       0.76310300
   102  F          0.06272500       0.48407000       0.73689700
   103  F          0.43727500      -0.01593000       0.76310300
   104  F          0.56272500      -0.01593000       0.73689700
   105  N          0.16779800       0.21784000       0.30189100
   106  N          0.83220200       0.21784000       0.19810900
   107  N          0.66779800       0.71784000       0.30189100
   108  N          0.33220200       0.71784000       0.19810900
   109  N          0.83220200       0.78216000       0.69810900
   110  N          0.16779800       0.78216000       0.80189100
   111  N          0.33220200       0.28216000       0.69810900
   112  N          0.66779800       0.28216000       0.80189100
   113  C          0.21757800       0.11946000       0.31417120
   114  C          0.78242200       0.11946000       0.18582880
   115  C          0.71757800       0.61946000       0.31417120
   116  C          0.28242200       0.61946000       0.18582880
   117  C          0.78242200       0.88054000       0.68582880
   118  C          0.21757800       0.88054000       0.81417120
   119  C          0.28242200       0.38054000       0.68582880
   120  C          0.71757800       0.38054000       0.81417120
   121  H          0.23950000       0.17570000       0.28460000
   122  H          0.76050000       0.17570000       0.21540000
   123  H          0.73950000       0.67570000       0.28460000
   124  H          0.26050000       0.67570000       0.21540000
   125  H          0.76050000       0.82430000       0.71540000
   126  H          0.23950000       0.82430000       0.78460000
   127  H          0.26050000       0.32430000       0.71540000
   128  H          0.73950000       0.32430000       0.78460000
   129  C          0.23829900       0.94084000       0.36761120
   130  C          0.76170100       0.94084000       0.13238880
   131  C          0.73829900       0.44084000       0.36761120
   132  C          0.26170100       0.44084000       0.13238880
   133  C          0.76170100       0.05916000       0.63238880
   134  C          0.23829900       0.05916000       0.86761120
   135  C          0.26170100       0.55916000       0.63238880
   136  C          0.73829900       0.55916000       0.86761120
   137  H          0.27380000       0.87550000       0.37440000
   138  H          0.72620000       0.87550000       0.12560000
   139  H          0.77380000       0.37550000       0.37440000
   140  H          0.22620000       0.37550000       0.12560000
   141  H          0.72620000       0.12450000       0.62560000
   142  H          0.27380000       0.12450000       0.87440000
   143  H          0.22620000       0.62450000       0.62560000
   144  H          0.77380000       0.62450000       0.87440000
   145  C          0.20734800       0.85555000       0.41189110
   146  C          0.79265200       0.85555000       0.08810890
   147  C          0.70734800       0.35555000       0.41189110
   148  C          0.29265200       0.35555000       0.08810890
   149  C          0.79265200       0.14445000       0.58810890
   150  C          0.20734800       0.14445000       0.91189110
   151  C          0.29265200       0.64445000       0.58810890
   152  C          0.70734800       0.64445000       0.91189110
   153  C          0.15549900       0.95844000       0.39870130
   154  C          0.84450100       0.95844000       0.10129870
   155  C          0.65549900       0.45844000       0.39870130
   156  C          0.34450100       0.45844000       0.10129870
   157  C          0.84450100       0.04156000       0.60129870
   158  C          0.15549900       0.04156000       0.89870130
   159  C          0.34450100       0.54156000       0.60129870
   160  C          0.65549900       0.54156000       0.89870130
   161  H          0.13270000       0.90620000       0.42740000
   162  H          0.86730000       0.90620000       0.07260000
   163  H          0.63270000       0.40620000       0.42740000
   164  H          0.36730000       0.40620000       0.07260000
   165  H          0.86730000       0.09380000       0.57260000
   166  H          0.13270000       0.09380000       0.92740000
   167  H          0.36730000       0.59380000       0.57260000
   168  H          0.63270000       0.59380000       0.92740000
   169  C          0.13768900       0.13636000       0.34377130
   170  C          0.86231100       0.13636000       0.15622870
   171  C          0.63768900       0.63636000       0.34377130
   172  C          0.36231100       0.63636000       0.15622870
   173  C          0.86231100       0.86364000       0.65622870
   174  C          0.13768900       0.86364000       0.84377130
   175  C          0.36231100       0.36364000       0.65622870
   176  C          0.63768900       0.36364000       0.84377130
   177  H          0.10220000       0.20410000       0.33530000
   178  H          0.89780000       0.20410000       0.16470000
   179  H          0.60220000       0.70410000       0.33530000
   180  H          0.39780000       0.70410000       0.16470000
   181  H          0.89780000       0.79590000       0.66470000
   182  H          0.10220000       0.79590000       0.83530000
   183  H          0.39780000       0.29590000       0.66470000
   184  H          0.60220000       0.29590000       0.83530000
   185  C          0.22955900       0.66995000       0.47264120
   186  C          0.77044100       0.66995000       0.02735880
   187  C          0.72955900       0.16995000       0.47264120
   188  C          0.27044100       0.16995000       0.02735880
   189  C          0.77044100       0.33005000       0.52735880
   190  C          0.22955900       0.33005000       0.97264120
   191  C          0.27044100       0.83005000       0.52735880
   192  C          0.72955900       0.83005000       0.97264120
   193  H          0.24650000       0.50060000       0.45750000
   194  H          0.75350000       0.50060000       0.04250000
   195  H          0.74650000       0.00060000       0.45750000
   196  H          0.25350000       0.00060000       0.04250000
   197  H          0.75350000       0.49940000       0.54250000
   198  H          0.24650000       0.49940000       0.95750000
   199  H          0.25350000      -0.00060000       0.54250000
   200  H          0.74650000      -0.00060000       0.95750000
   201  H          0.20030000       0.60320000       0.49270000
   202  H          0.79970000       0.60320000       0.00730000
   203  H          0.70030000       0.10320000       0.49270000
   204  H          0.29970000       0.10320000       0.00730000
   205  H          0.79970000       0.39680000       0.50730000
   206  H          0.20030000       0.39680000       0.99270000
   207  H          0.29970000       0.89680000       0.50730000
   208  H          0.70030000       0.89680000       0.99270000
