data_BUNHAV
_symmetry_space_group_name_H-M    'P1'
_symmetry_Int_Tables_number       1
loop_
_symmetry_equiv_pos_site_id
_symmetry_equiv_pos_as_xyz
1 x,y,z
_cell_length_a                   7.11084
_cell_length_b                   7.46244
_cell_length_c                   11.22996
_cell_angle_alpha                93.4342
_cell_angle_beta                 94.0222
_cell_angle_gamma                103.3732
loop_
_atom_site_label
_atom_site_type_symbol
_atom_site_fract_x
_atom_site_fract_y
_atom_site_fract_z
     1  N          0.20193000       0.96032000       0.36740170
     2  N          0.79807000       0.03968000       0.63259830
     3  C          0.37943000       0.97293000       0.33032000
     4  C          0.62057000       0.02707000       0.66968000
     5  H          0.42920000       0.06830000       0.28060000
     6  H          0.57080000       0.93170000       0.71940000
     7  C          0.49243000       0.85273000       0.36146190
     8  C          0.50757000       0.14727000       0.63853810
     9  H          0.61740000       0.86610000       0.33320000
    10  H          0.38260000       0.13390000       0.66680000
    11  C          0.42313000       0.71143000       0.43455180
    12  C          0.57687000       0.28857000       0.56544820
    13  C          0.23963000       0.69993000       0.47291190
    14  C          0.76037000       0.30007000       0.52708810
    15  H          0.18630000       0.60670000       0.52330000
    16  H          0.81370000       0.39330000       0.47670000
    17  C          0.13453000       0.82543000       0.43712000
    18  C          0.86547000       0.17457000       0.56288000
    19  H          0.00870000       0.81490000       0.46360000
    20  H         -0.00870000       0.18510000       0.53640000
    21  C          0.54953000       0.58303000       0.46874190
    22  C          0.45047000       0.41697000       0.53125810
    23  H          0.66240000       0.65420000       0.52190000
    24  H          0.33760000       0.34580000       0.47810000
    25  H          0.59960000       0.53850000       0.39530000
    26  H          0.40040000       0.46150000       0.60470000
    27  Br         0.65341700       0.87116300       0.04548200
    28  Br         0.34658300       0.12883700       0.95451800
    29  C         -0.01483000       0.44823000       0.18747170
    30  C          0.01483000       0.55177000       0.81252830
    31  C          0.09723000       0.31823000       0.23586180
    32  C          0.90277000       0.68177000       0.76413820
    33  O         -0.01072000       0.17622000       0.28247160
    34  O          0.01072000       0.82378000       0.71752840
    35  H          0.05350000       0.10250000       0.30630000
    36  H          0.94650000       0.89750000       0.69370000
    37  O          0.27192000       0.34482000       0.23445160
    38  O          0.72808000       0.65518000       0.76554840
    39  C          0.08583000       0.61053000       0.14412190
    40  C          0.91417000       0.38947000       0.85587810
    41  H          0.22300000       0.63490000       0.14400000
    42  H          0.77700000       0.36510000       0.85600000
    43  C         -0.01193000       0.73643000       0.10132190
    44  C          0.01193000       0.26357000       0.89867810
    45  H          0.05670000       0.84770000       0.07210000
    46  H          0.94330000       0.15230000       0.92790000
    47  C          0.78777000       0.69723000       0.10176190
    48  C          0.21223000       0.30277000       0.89823810
    49  C          0.68347000       0.53563000       0.14232000
    50  C          0.31653000       0.46437000       0.85768000
    51  H          0.54610000       0.51060000       0.14080000
    52  H          0.45390000       0.48940000       0.85920000
    53  C          0.78397000       0.41073000       0.18532000
    54  C          0.21603000       0.58927000       0.81468000
    55  H          0.71490000       0.29880000       0.21350000
    56  H          0.28510000       0.70120000       0.78650000
