data_BUPHAM
_symmetry_space_group_name_H-M    'P1'
_symmetry_Int_Tables_number       1
loop_
_symmetry_equiv_pos_site_id
_symmetry_equiv_pos_as_xyz
1 x,y,z
_cell_length_a                   11.8164
_cell_length_b                   9.1153
_cell_length_c                   12.6545
_cell_angle_alpha                117.058
_cell_angle_beta                 93.27
_cell_angle_gamma                98.887
loop_
_atom_site_label
_atom_site_type_symbol
_atom_site_fract_x
_atom_site_fract_y
_atom_site_fract_z
     1  Cl         0.03840000       0.31480000       0.59470000
     2  Cl         0.96160000       0.68520000       0.40530000
     3  P          0.92280000       0.02090000       0.78620000
     4  P          0.07720000      -0.02090000       0.21380000
     5  O          0.02590000       0.01980000       0.86210000
     6  O          0.97410000      -0.01980000       0.13790000
     7  N          0.94440000       0.01460000       0.65900000
     8  N          0.05560000      -0.01460000       0.34100000
     9  C          0.81070000       0.84410000       0.75810000
    10  C          0.18930000       0.15590000       0.24190000
    11  C          0.70520000       0.83530000       0.67870000
    12  C          0.29480000       0.16470000       0.32130000
    13  C          0.77810000       0.86440000       0.87880000
    14  C          0.22190000       0.13560000       0.12120000
    15  C          0.85860000       0.68000000       0.69430000
    16  C          0.14140000       0.32000000       0.30570000
    17  C          0.87740000       0.21370000       0.87180000
    18  C          0.12260000       0.78630000       0.12820000
    19  C          0.81760000       0.28510000       0.81840000
    20  C          0.18240000       0.71490000       0.18160000
    21  C          0.78120000       0.43610000       0.88830000
    22  C          0.21880000       0.56390000       0.11170000
    23  C          0.80460000       0.50980000       0.01100000
    24  C          0.19540000       0.49020000      -0.01100000
    25  C          0.86700000       0.44170000       0.06690000
    26  C          0.13300000       0.55830000       0.93310000
    27  C          0.90280000       0.29140000      -0.00100000
    28  C          0.09720000       0.70860000       0.00100000
    29  H          0.09600000      -0.01100000       0.84300000
    30  H          0.90400000       0.01100000       0.15700000
    31  H          0.93000000       0.91000000       0.59500000
    32  H          0.07000000       0.09000000       0.40500000
    33  H          0.97200000       0.11700000       0.64900000
    34  H          0.02800000       0.88300000       0.35100000
    35  H          0.64000000       0.87000000       0.64000000
    36  H          0.36000000       0.13000000       0.36000000
    37  H          0.64800000       0.73300000       0.66300000
    38  H          0.35200000       0.26700000       0.33700000
    39  H          0.70000000       0.97500000       0.74100000
    40  H          0.30000000       0.02500000       0.25900000
    41  H          0.74100000       0.76800000       0.89600000
    42  H          0.25900000       0.23200000       0.10400000
    43  H          0.80100000       0.96800000       0.95900000
    44  H          0.19900000       0.03200000       0.04100000
    45  H          0.88000000       0.67000000       0.62000000
    46  H          0.12000000       0.33000000       0.38000000
    47  H          0.90600000       0.64700000       0.74700000
    48  H          0.09400000       0.35300000       0.25300000
    49  H          0.79900000       0.22700000       0.72700000
    50  H          0.20100000       0.77300000       0.27300000
    51  H          0.73500000       0.48900000       0.84700000
    52  H          0.26500000       0.51100000       0.15300000
    53  H          0.77600000       0.61900000       0.06000000
    54  H          0.22400000       0.38100000       0.94000000
    55  H          0.88400000       0.50300000       0.15800000
    56  H          0.11600000       0.49700000       0.84200000
    57  H          0.94600000       0.24000000       0.03900000
    58  H          0.05400000       0.76000000       0.96100000
    59  P          0.24820000       0.82000000       0.70250000
    60  P          0.75180000       0.18000000       0.29750000
    61  O          0.21070000       0.95650000       0.81070000
    62  O          0.78930000       0.04350000       0.18930000
    63  N          0.15150000       0.67060000       0.59970000
    64  N          0.84850000       0.32940000       0.40030000
    65  C          0.33430000       0.92400000       0.62950000
    66  C          0.66570000       0.07600000       0.37050000
    67  C          0.43310000       0.05930000       0.72480000
    68  C          0.56690000       0.94070000       0.27520000
    69  C          0.38600000       0.80090000       0.52740000
    70  C          0.61400000       0.19910000       0.47260000
    71  C          0.25380000       0.00780000       0.58630000
    72  C          0.74620000      -0.00780000       0.41370000
    73  C          0.33680000       0.71490000       0.75510000
    74  C          0.66320000       0.28510000       0.24490000
    75  C          0.35630000       0.55790000       0.67930000
    76  C          0.64370000       0.44210000       0.32070000
    77  C          0.42690000       0.48440000       0.72360000
    78  C          0.57310000       0.51560000       0.27640000
    79  C          0.47170000       0.56340000       0.84320000
    80  C          0.52830000       0.43660000       0.15680000
    81  C          0.45450000       0.71940000       0.91770000
    82  C          0.54550000       0.28060000       0.08230000
    83  C          0.38480000       0.79530000       0.87530000
    84  C          0.61520000       0.20470000       0.12470000
    85  H          0.08900000       0.67200000       0.57800000
    86  H          0.91100000       0.32800000       0.42200000
    87  H          0.17500000       0.55800000       0.56000000
    88  H          0.82500000       0.44200000       0.44000000
    89  H          0.50000000       0.03000000       0.76000000
    90  H          0.50000000       0.97000000       0.24000000
    91  H          0.39800000       0.13500000       0.79600000
    92  H          0.60200000       0.86500000       0.20400000
    93  H          0.47100000       0.13100000       0.68900000
    94  H          0.52900000       0.86900000       0.31100000
    95  H          0.43000000       0.81000000       0.48000000
    96  H          0.57000000       0.19000000       0.52000000
    97  H          0.43100000       0.74400000       0.56500000
    98  H          0.56900000       0.25600000       0.43500000
    99  H          0.31800000       0.71200000       0.47000000
   100  H          0.68200000       0.28800000       0.53000000
   101  H          0.21100000       0.07800000       0.65700000
   102  H          0.78900000       0.92200000       0.34300000
   103  H          0.29700000       0.08700000       0.56200000
   104  H          0.70300000       0.91300000       0.43800000
   105  H          0.20000000       0.94000000       0.53000000
   106  H          0.80000000       0.06000000       0.47000000
   107  H          0.31600000       0.49500000       0.59200000
   108  H          0.68400000       0.50500000       0.40800000
   109  H          0.44800000       0.37000000       0.66300000
   110  H          0.55200000       0.63000000       0.33700000
   111  H          0.51500000       0.50000000       0.87200000
   112  H          0.48500000       0.50000000       0.12800000
   113  H          0.49500000       0.77700000       0.00400000
   114  H          0.50500000       0.22300000      -0.00400000
   115  H          0.36900000       0.91100000       0.93200000
   116  H          0.63100000       0.08900000       0.06800000
