data_BUVQER
_symmetry_space_group_name_H-M    'P1'
_symmetry_Int_Tables_number       1
loop_
_symmetry_equiv_pos_site_id
_symmetry_equiv_pos_as_xyz
1 x,y,z
_cell_length_a                   3.70756
_cell_length_b                   10.950518
_cell_length_c                   15.9663
_cell_angle_alpha                101.3666
_cell_angle_beta                 95.7066
_cell_angle_gamma                91.3276
loop_
_atom_site_label
_atom_site_type_symbol
_atom_site_fract_x
_atom_site_fract_y
_atom_site_fract_z
     1  O          0.79233000       0.29828110       0.37195800
     2  O          0.20767000       0.70171890       0.62804200
     3  H          0.74560000       0.29920000       0.43701500
     4  H          0.25440000       0.70080000       0.56298500
     5  O          0.95413000       0.10540110       0.37940700
     6  O          0.04587000       0.89459890       0.62059300
     7  O          0.19663000       0.96707890       0.25047800
     8  O          0.80337000       0.03292110       0.74952200
     9  H          0.13760000      -0.00920000       0.30351400
    10  H          0.86240000       0.00920000       0.69648600
    11  O          0.95434000       0.34330120       0.06965700
    12  O          0.04566000       0.65669880       0.93034300
    13  H          0.87770000       0.41320000       0.09951500
    14  H          0.12230000       0.58680000       0.90048500
    15  C          0.91325000       0.18940160       0.33815110
    16  C          0.08675000       0.81059840       0.66184890
    17  C         -0.00445000       0.17474150       0.24851100
    18  C          0.00445000       0.82525850       0.75148900
    19  C          0.13275000       0.06292150       0.20833100
    20  C          0.86725000       0.93707850       0.79166900
    21  C          0.20925000       0.04749170       0.12369110
    22  C          0.79075000       0.95250830       0.87630890
    23  H          0.31340000       0.96868400       0.09691000
    24  H          0.68660000       0.03131600       0.90309000
    25  C          0.14975000       0.14151160       0.07901110
    26  C          0.85025000       0.85848840       0.92098890
    27  H          0.21150000       0.13151600       0.01981100
    28  H          0.78850000       0.86848400       0.98018900
    29  C          0.01135000       0.25373150       0.11838100
    30  C         -0.01135000       0.74626850       0.88161900
    31  C          0.93505000       0.26971160       0.20240100
    32  C          0.06495000       0.73028840       0.79759900
    33  H          0.82940000       0.34331600       0.22881000
    34  H          0.17060000       0.65668400       0.77119000
    35  O          0.27084000       0.45032110       0.82480800
    36  O          0.72916000       0.54967890       0.17519200
    37  N          0.64244000       0.31560140       0.52960800
    38  N          0.35756000       0.68439860       0.47039200
    39  N          0.47604000       0.25959150       0.82881900
    40  N          0.52396000       0.74040850       0.17118100
    41  H          0.57150000       0.19001900       0.80181200
    42  H          0.42850000       0.80998100       0.19818800
    43  N          0.37665000       0.25778150       0.91212100
    44  N          0.62335000       0.74221850       0.08787900
    45  H          0.19360000       0.31120000       0.92121300
    46  H          0.80640000       0.68880000       0.07878700
    47  H          0.56760000       0.28541800       0.95271200
    48  H          0.43240000       0.71458200       0.04728800
    49  C          0.68105000       0.42559170       0.58542110
    50  C          0.31895000       0.57440830       0.41457890
    51  H          0.77450000       0.49421600       0.56431000
    52  H          0.22550000       0.50578400       0.43569000
    53  C          0.60385000       0.43967170       0.66898110
    54  C          0.39615000       0.56032830       0.33101890
    55  H          0.64050000       0.51761800       0.70601100
    56  H          0.35950000       0.48238200       0.29398900
    57  C          0.48845000       0.33577160       0.69819100
    58  C          0.51155000       0.66422840       0.30180900
    59  C          0.44415000       0.22199170       0.64091110
    60  C          0.55585000       0.77800830       0.35908890
    61  H          0.36350000       0.14931600       0.65661000
    62  H          0.63650000       0.85068400       0.34339000
    63  C          0.52285000       0.21667170       0.55779110
    64  C          0.47715000       0.78332830       0.44220890
    65  H          0.49450000       0.13721700       0.51461100
    66  H          0.50550000       0.86278300       0.48538900
    67  C          0.40315000       0.35349160       0.78999110
    68  C          0.59685000       0.64650840       0.21000890
