data_CACGOE
_symmetry_space_group_name_H-M    'P1'
_symmetry_Int_Tables_number       1
loop_
_symmetry_equiv_pos_site_id
_symmetry_equiv_pos_as_xyz
1 x,y,z
_cell_length_a                   9.72906
_cell_length_b                   9.05385
_cell_length_c                   12.36337
_cell_angle_alpha                90.0
_cell_angle_beta                 110.4031
_cell_angle_gamma                90.0
loop_
_atom_site_label
_atom_site_type_symbol
_atom_site_fract_x
_atom_site_fract_y
_atom_site_fract_z
     1  I          0.26264200       0.48695200       0.26391217
     2  I          0.73735800      -0.01304800       0.23608783
     3  I          0.73735800       0.51304800       0.73608783
     4  I          0.26264200       0.01304800       0.76391217
     5  I          0.56966519       0.50597818       0.28814114
     6  I          0.43033481       0.00597818       0.21185886
     7  I          0.43033481       0.49402182       0.71185886
     8  I          0.56966519      -0.00597818       0.78814114
     9  I          0.88379200       0.52290200       0.31462916
    10  I          0.11620800       0.02290200       0.18537084
    11  I          0.11620800       0.47709800       0.68537084
    12  I          0.88379200       0.97709800       0.81462916
    13  O          0.40542000       0.32872000      -0.00715180
    14  O          0.59458000       0.82872000       0.50715180
    15  O          0.59458000       0.67128000       0.00715180
    16  O          0.40542000       0.17128000       0.49284820
    17  O          0.88622000       0.37402000       0.04062180
    18  O          0.11378000       0.87402000       0.45937820
    19  O          0.11378000       0.62598000       0.95937820
    20  O          0.88622000       0.12598000       0.54062180
    21  C          0.52393000       0.27333000       0.00512000
    22  C          0.47607000       0.77333000       0.49488000
    23  C          0.47607000       0.72667000      -0.00512000
    24  C          0.52393000       0.22667000       0.50512000
    25  H          0.53040000       0.17450000       0.01030000
    26  H          0.46960000       0.67450000       0.48970000
    27  H          0.46960000       0.82550000      -0.01030000
    28  H          0.53040000       0.32550000       0.51030000
    29  C          0.77953000       0.29773000       0.02942000
    30  C          0.22047000       0.79773000       0.47058000
    31  C          0.22047000       0.70227000       0.97058000
    32  C          0.77953000       0.20227000       0.52942000
    33  H          0.78740000       0.19350000       0.02730000
    34  H          0.21260000       0.69350000       0.47270000
    35  H          0.21260000       0.80650000       0.97270000
    36  H          0.78740000       0.30650000       0.52730000
    37  N          0.64472000       0.35693000       0.01702000
    38  N          0.35528000       0.85693000       0.48298000
    39  N          0.35528000       0.64307000       0.98298000
    40  N          0.64472000       0.14307000       0.51702000
    41  H          0.62840000       0.45350000       0.00830000
    42  H          0.37160000       0.95350000       0.49170000
    43  H          0.37160000       0.54650000      -0.00830000
    44  H          0.62840000       0.04650000       0.50830000
    45  N          0.89313000       0.79623000       0.54643000
    46  N          0.10687000       0.29623000       0.95357000
    47  N          0.10687000       0.20377000       0.45357000
    48  N          0.89313000       0.70377000       0.04643000
    49  H          0.79150000       0.77250000       0.53430000
    50  H          0.20850000       0.27250000       0.96570000
    51  H          0.20850000       0.22750000       0.46570000
    52  H          0.79150000       0.72750000       0.03430000
    53  H          0.89150000       0.88450000       0.56240000
    54  H          0.10850000       0.38450000       0.93760000
    55  H          0.10850000       0.11550000       0.43760000
    56  H          0.89150000       0.61550000       0.06240000
    57  H          0.94040000       0.73850000       0.61440000
    58  H          0.05960000       0.23850000       0.88560000
    59  H          0.05960000       0.26150000       0.38560000
    60  H          0.94040000       0.76150000       0.11440000
    61  H          0.91140000       0.76950000       0.47830000
    62  H          0.08860000       0.26950000       0.02170000
    63  H          0.08860000       0.23050000       0.52170000
    64  H          0.91140000       0.73050000       0.97830000
