data_CACGUK
_symmetry_space_group_name_H-M    'P1'
_symmetry_Int_Tables_number       1
loop_
_symmetry_equiv_pos_site_id
_symmetry_equiv_pos_as_xyz
1 x,y,z
_cell_length_a                   22.9132
_cell_length_b                   5.20465
_cell_length_c                   20.013218
_cell_angle_alpha                90.0
_cell_angle_beta                 100.2127
_cell_angle_gamma                90.0
loop_
_atom_site_label
_atom_site_type_symbol
_atom_site_fract_x
_atom_site_fract_y
_atom_site_fract_z
     1  F          0.17018500       0.49402000       0.49114500
     2  F          0.82981500       0.49402000       0.00885500
     3  F          0.67018500      -0.00598000       0.49114500
     4  F          0.32981500      -0.00598000       0.00885500
     5  F          0.82981500       0.50598000       0.50885500
     6  F          0.17018500       0.50598000       0.99114500
     7  F          0.32981500       0.00598000       0.50885500
     8  F          0.67018500       0.00598000       0.99114500
     9  O          0.16180400       0.20392000       0.25709500
    10  O          0.83819600       0.20392000       0.24290500
    11  O          0.66180400       0.70392000       0.25709500
    12  O          0.33819600       0.70392000       0.24290500
    13  O          0.83819600       0.79608000       0.74290500
    14  O          0.16180400       0.79608000       0.75709500
    15  O          0.33819600       0.29608000       0.74290500
    16  O          0.66180400       0.29608000       0.75709500
    17  O          0.09326400       0.20592000       0.32363500
    18  O          0.90673600       0.20592000       0.17636500
    19  O          0.59326400       0.70592000       0.32363500
    20  O          0.40673600       0.70592000       0.17636500
    21  O          0.90673600       0.79408000       0.67636500
    22  O          0.09326400       0.79408000       0.82363500
    23  O          0.40673600       0.29408000       0.67636500
    24  O          0.59326400       0.29408000       0.82363500
    25  C          0.17388600       0.90703000       0.34699700
    26  C          0.82611400       0.90703000       0.15300300
    27  C          0.67388600       0.40703000       0.34699700
    28  C          0.32611400       0.40703000       0.15300300
    29  C          0.82611400       0.09297000       0.65300300
    30  C          0.17388600       0.09297000       0.84699700
    31  C          0.32611400       0.59297000       0.65300300
    32  C          0.67388600       0.59297000       0.84699700
    33  C          0.15504700       0.80143000       0.40346800
    34  C          0.84495300       0.80143000       0.09653200
    35  C          0.65504700       0.30143000       0.40346800
    36  C          0.34495300       0.30143000       0.09653200
    37  C          0.84495300       0.19857000       0.59653200
    38  C          0.15504700       0.19857000       0.90346800
    39  C          0.34495300       0.69857000       0.59653200
    40  C          0.65504700       0.69857000       0.90346800
    41  C          0.18815700       0.60163000       0.43657800
    42  C          0.81184300       0.60163000       0.06342200
    43  C          0.68815700       0.10163000       0.43657800
    44  C          0.31184300       0.10163000       0.06342200
    45  C          0.81184300       0.39837000       0.56342200
    46  C          0.18815700       0.39837000       0.93657800
    47  C          0.31184300       0.89837000       0.56342200
    48  C          0.68815700       0.89837000       0.93657800
    49  C          0.23825700       0.50523000       0.41718800
    50  C          0.76174300       0.50523000       0.08281200
    51  C          0.73825700       0.00523000       0.41718800
    52  C          0.26174300       0.00523000       0.08281200
    53  C          0.76174300       0.49477000       0.58281200
    54  C          0.23825700       0.49477000       0.91718800
    55  C          0.26174300      -0.00523000       0.58281200
    56  C          0.73825700      -0.00523000       0.91718800
    57  C          0.25631700       0.61223000       0.36078800
    58  C          0.74368300       0.61223000       0.13921200
    59  C          0.75631700       0.11223000       0.36078800
    60  C          0.24368300       0.11223000       0.13921200
    61  C          0.74368300       0.38777000       0.63921200
    62  C          0.25631700       0.38777000       0.86078800
    63  C          0.24368300       0.88777000       0.63921200
    64  C          0.75631700       0.88777000       0.86078800
    65  C          0.22457600       0.81233000       0.32584800
    66  C          0.77542400       0.81233000       0.17415200
    67  C          0.72457600       0.31233000       0.32584800
    68  C          0.27542400       0.31233000       0.17415200
    69  C          0.77542400       0.18767000       0.67415200
    70  C          0.22457600       0.18767000       0.82584800
    71  C          0.27542400       0.68767000       0.67415200
    72  C          0.72457600       0.68767000       0.82584800
    73  C          0.13899600       0.12113000       0.30854700
    74  C          0.86100400       0.12113000       0.19145300
    75  C          0.63899600       0.62113000       0.30854700
    76  C          0.36100400       0.62113000       0.19145300
    77  C          0.86100400       0.87887000       0.69145300
    78  C          0.13899600       0.87887000       0.80854700
    79  C          0.36100400       0.37887000       0.69145300
    80  C          0.63899600       0.37887000       0.80854700
    81  H          0.13531200       0.36360000       0.22841300
    82  H          0.86468800       0.36360000       0.27158700
    83  H          0.63531200       0.86360000       0.22841300
    84  H          0.36468800       0.86360000       0.27158700
    85  H          0.86468800       0.63640000       0.77158700
    86  H          0.13531200       0.63640000       0.72841300
    87  H          0.36468800       0.13640000       0.77158700
    88  H          0.63531200       0.13640000       0.72841300
    89  H          0.12147000       0.86330000       0.41848000
    90  H          0.87853000       0.86330000       0.08152000
    91  H          0.62147000       0.36330000       0.41848000
    92  H          0.37853000       0.36330000       0.08152000
    93  H          0.87853000       0.13670000       0.58152000
    94  H          0.12147000       0.13670000       0.91848000
    95  H          0.37853000       0.63670000       0.58152000
    96  H          0.62147000       0.63670000       0.91848000
    97  H          0.26018000       0.36740000       0.44349000
    98  H          0.73982000       0.36740000       0.05651000
    99  H          0.76018000       0.86740000       0.44349000
   100  H          0.23982000       0.86740000       0.05651000
   101  H          0.73982000       0.63260000       0.55651000
   102  H          0.26018000       0.63260000       0.94349000
   103  H          0.23982000       0.13260000       0.55651000
   104  H          0.76018000       0.13260000       0.94349000
   105  H          0.28966000       0.52930000       0.35007000
   106  H          0.71034000       0.52930000       0.14993000
   107  H          0.78966000       0.02930000       0.35007000
   108  H          0.21034000       0.02930000       0.14993000
   109  H          0.71034000       0.47070000       0.64993000
   110  H          0.28966000       0.47070000       0.85007000
   111  H          0.21034000       0.97070000       0.64993000
   112  H          0.78966000       0.97070000       0.85007000
   113  H          0.23737000       0.88430000       0.28539000
   114  H          0.76263000       0.88430000       0.21461000
   115  H          0.73737000       0.38430000       0.28539000
   116  H          0.26263000       0.38430000       0.21461000
   117  H          0.76263000       0.11570000       0.71461000
   118  H          0.23737000       0.11570000       0.78539000
   119  H          0.26263000       0.61570000       0.71461000
   120  H          0.73737000       0.61570000       0.78539000
   121  O          0.05069400       0.24108190       0.01094500
   122  O          0.94930600       0.24108190       0.48905500
   123  O          0.55069400       0.74108190       0.01094500
   124  O          0.44930600       0.74108190       0.48905500
   125  O          0.94930600       0.75891810       0.98905500
   126  O          0.05069400       0.75891810       0.51094500
   127  O          0.44930600       0.25891810       0.98905500
   128  O          0.55069400       0.25891810       0.51094500
   129  N          0.10554500       0.56922000       0.18634600
   130  N          0.89445500       0.56922000       0.31365400
   131  N          0.60554500       0.06922000       0.18634600
   132  N          0.39445500       0.06922000       0.31365400
   133  N          0.89445500       0.43078000       0.81365400
   134  N          0.10554500       0.43078000       0.68634600
   135  N          0.39445500       0.93078000       0.81365400
   136  N          0.60554500       0.93078000       0.68634600
   137  N          0.98144500       0.32002000       0.07584600
   138  N          0.01855500       0.32002000       0.42415400
   139  N          0.48144500       0.82002000       0.07584600
   140  N          0.51855500       0.82002000       0.42415400
   141  N          0.01855500       0.67998000       0.92415400
   142  N          0.98144500       0.67998000       0.57584600
   143  N          0.51855500       0.17998000       0.92415400
   144  N          0.48144500       0.17998000       0.57584600
   145  C          0.12154600       0.62443000       0.12662700
   146  C          0.87845400       0.62443000       0.37337300
   147  C          0.62154600       0.12443000       0.12662700
   148  C          0.37845400       0.12443000       0.37337300
   149  C          0.87845400       0.37557000       0.87337300
   150  C          0.12154600       0.37557000       0.62662700
   151  C          0.37845400       0.87557000       0.87337300
   152  C          0.62154600       0.87557000       0.62662700
   153  C          0.09619600       0.82263000       0.08561700
   154  C          0.90380400       0.82263000       0.41438300
   155  C          0.59619600       0.32263000       0.08561700
   156  C          0.40380400       0.32263000       0.41438300
   157  C          0.90380400       0.17737000       0.91438300
   158  C          0.09619600       0.17737000       0.58561700
   159  C          0.40380400       0.67737000       0.91438300
   160  C          0.59619600       0.67737000       0.58561700
   161  C          0.05213600       0.97013000       0.10597700
   162  C          0.94786400       0.97013000       0.39402300
   163  C          0.55213600       0.47013000       0.10597700
   164  C          0.44786400       0.47013000       0.39402300
   165  C          0.94786400       0.02987000       0.89402300
   166  C          0.05213600       0.02987000       0.60597700
   167  C          0.44786400       0.52987000       0.89402300
   168  C          0.55213600       0.52987000       0.60597700
   169  C          0.03518600       0.91193000       0.16778700
   170  C          0.96481400       0.91193000       0.33221300
   171  C          0.53518600       0.41193000       0.16778700
   172  C          0.46481400       0.41193000       0.33221300
   173  C          0.96481400       0.08807000       0.83221300
   174  C          0.03518600       0.08807000       0.66778700
   175  C          0.46481400       0.58807000       0.83221300
   176  C          0.53518600       0.58807000       0.66778700
   177  C          0.06299600       0.71113000       0.20598700
   178  C          0.93700400       0.71113000       0.29401300
   179  C          0.56299600       0.21113000       0.20598700
   180  C          0.43700400       0.21113000       0.29401300
   181  C          0.93700400       0.28887000       0.79401300
   182  C          0.06299600       0.28887000       0.70598700
   183  C          0.43700400       0.78887000       0.79401300
   184  C          0.56299600       0.78887000       0.70598700
   185  C          0.02710600       0.18923000       0.06041700
   186  C          0.97289400       0.18923000       0.43958300
   187  C          0.52710600       0.68923000       0.06041700
   188  C          0.47289400       0.68923000       0.43958300
   189  C          0.97289400       0.81077000       0.93958300
   190  C          0.02710600       0.81077000       0.56041700
   191  C          0.47289400       0.31077000       0.93958300
   192  C          0.52710600       0.31077000       0.56041700
   193  H          0.96702000       0.45140000       0.04819000
   194  H          0.03298000       0.45140000       0.45181000
   195  H          0.46702000       0.95140000       0.04819000
   196  H          0.53298000       0.95140000       0.45181000
   197  H          0.03298000       0.54860000       0.95181000
   198  H          0.96702000       0.54860000       0.54819000
   199  H          0.53298000       0.04860000       0.95181000
   200  H          0.46702000       0.04860000       0.54819000
   201  H          0.96132000       0.26940000       0.10921000
   202  H          0.03868000       0.26940000       0.39079000
   203  H          0.46132000       0.76940000       0.10921000
   204  H          0.53868000       0.76940000       0.39079000
   205  H          0.03868000       0.73060000       0.89079000
   206  H          0.96132000       0.73060000       0.60921000
   207  H          0.53868000       0.23060000       0.89079000
   208  H          0.46132000       0.23060000       0.60921000
   209  H          0.15248000       0.51630000       0.11389000
   210  H          0.84752000       0.51630000       0.38611000
   211  H          0.65248000       0.01630000       0.11389000
   212  H          0.34752000       0.01630000       0.38611000
   213  H          0.84752000       0.48370000       0.88611000
   214  H          0.15248000       0.48370000       0.61389000
   215  H          0.34752000      -0.01630000       0.88611000
   216  H          0.65248000      -0.01630000       0.61389000
   217  H          0.10897000       0.85730000       0.04329000
   218  H          0.89103000       0.85730000       0.45671000
   219  H          0.60897000       0.35730000       0.04329000
   220  H          0.39103000       0.35730000       0.45671000
   221  H          0.89103000       0.14270000       0.95671000
   222  H          0.10897000       0.14270000       0.54329000
   223  H          0.39103000       0.64270000       0.95671000
   224  H          0.60897000       0.64270000       0.54329000
   225  H          0.00568000       0.00830000       0.18419000
   226  H         -0.00568000       0.00830000       0.31581000
   227  H          0.50568000       0.50830000       0.18419000
   228  H          0.49432000       0.50830000       0.31581000
   229  H         -0.00568000      -0.00830000       0.81581000
   230  H          0.00568000      -0.00830000       0.68419000
   231  H          0.49432000       0.49170000       0.81581000
   232  H          0.50568000       0.49170000       0.68419000
   233  H          0.05247000       0.65930000       0.25018000
   234  H          0.94753000       0.65930000       0.24982000
   235  H          0.55247000       0.15930000       0.25018000
   236  H          0.44753000       0.15930000       0.24982000
   237  H          0.94753000       0.34070000       0.74982000
   238  H          0.05247000       0.34070000       0.75018000
   239  H          0.44753000       0.84070000       0.74982000
   240  H          0.55247000       0.84070000       0.75018000
