data_CACVEK
_symmetry_space_group_name_H-M    'P1'
_symmetry_Int_Tables_number       1
loop_
_symmetry_equiv_pos_site_id
_symmetry_equiv_pos_as_xyz
1 x,y,z
_cell_length_a                   10.48781
_cell_length_b                   12.389611
_cell_length_c                   12.793212
_cell_angle_alpha                78.9828
_cell_angle_beta                 82.2018
_cell_angle_gamma                81.5978
loop_
_atom_site_label
_atom_site_type_symbol
_atom_site_fract_x
_atom_site_fract_y
_atom_site_fract_z
     1  C          0.03101300       0.21591000       0.13471000
     2  C          0.96898700       0.78409000       0.86529000
     3  C          0.08561400       0.25999000       0.20891000
     4  C          0.91438600       0.74001000       0.79109000
     5  C          0.18781400       0.20571100       0.26469000
     6  C          0.81218600       0.79428900       0.73531000
     7  C          0.22731200       0.09611000       0.25099000
     8  C          0.77268800       0.90389000       0.74901000
     9  C          0.17181300       0.05149000       0.17959000
    10  C          0.82818700       0.94851000       0.82041000
    11  C          0.07561600       0.11151100       0.12581200
    12  C          0.92438400       0.88848900       0.87418800
    13  F          0.04481200       0.36747000       0.22121000
    14  F          0.95518800       0.63253000       0.77879000
    15  F          0.32339000       0.03888000       0.30428000
    16  F          0.67661000       0.96112000       0.69572000
    17  F          0.02671000       0.06697000       0.05558000
    18  F          0.97329000       0.93303000       0.94442000
    19  I          0.88729900       0.31030700       0.04600800
    20  I          0.11270100       0.68969300       0.95399200
    21  I          0.26448900       0.27720800       0.37351600
    22  I          0.73551100       0.72279200       0.62648400
    23  I          0.24318110       0.88860300       0.15326800
    24  I          0.75681890       0.11139700       0.84673200
    25  C          0.45521800       0.29811500       0.58631400
    26  C          0.54478200       0.70188500       0.41368600
    27  H          0.47530000       0.22940000       0.56490000
    28  H          0.52470000       0.77060000       0.43510000
    29  C          0.51871600       0.31791200       0.66871300
    30  C          0.48128400       0.68208800       0.33128700
    31  H          0.57900000       0.26340000       0.70110000
    32  H          0.42100000       0.73660000       0.29890000
    33  C          0.49091200       0.41889000       0.70139000
    34  C          0.50908800       0.58111000       0.29861000
    35  C          0.39691600       0.49461300       0.65121500
    36  C          0.60308400       0.50538700       0.34878500
    37  H          0.37180000       0.56290000       0.67280000
    38  H          0.62820000       0.43710000       0.32720000
    39  C          0.34220000       0.46821900       0.57011600
    40  C          0.65780000       0.53178100       0.42988400
    41  H          0.28170000       0.52170000       0.53610000
    42  H          0.71830000       0.47830000       0.46390000
    43  C          0.55701300       0.44098000       0.78599000
    44  C          0.44298700       0.55902000       0.21401000
    45  C          0.61351200       0.53271000       0.89259000
    46  C          0.38648800       0.46729000       0.10741000
    47  C          0.61661100       0.62701000       0.94429000
    48  C          0.38338900       0.37299000       0.05571000
    49  C          0.70501400       0.61961000       0.01731200
    50  C          0.29498600       0.38039000       0.98268800
    51  H          0.76160000       0.55480000       0.03210000
    52  H          0.23840000       0.44520000       0.96790000
    53  C          0.71011400       0.70571100       0.06791200
    54  C          0.28988600       0.29428900       0.93208800
    55  H          0.76670000       0.69820000       0.11950000
    56  H          0.23330000       0.30180000       0.88050000
    57  C          0.63131400       0.80431000       0.04251000
    58  C          0.36868600       0.19569000       0.95749000
    59  C          0.54591400       0.81351000       0.96741000
    60  C          0.45408600       0.18649000       0.03259000
    61  H          0.49330000       0.88000000       0.94980000
    62  H          0.50670000       0.12000000       0.05020000
    63  C          0.53751300       0.72699000       0.91861000
    64  C          0.46248700       0.27301000       0.08139000
    65  H          0.47920000       0.73420000       0.86830000
    66  H          0.52080000       0.26580000       0.13170000
    67  C          0.71771800       0.88931200       0.16641200
    68  C          0.28228200       0.11068800       0.83358800
    69  H          0.80780000       0.87750000       0.13680000
    70  H          0.19220000       0.12250000       0.86320000
    71  H          0.70100000       0.82810000       0.22410000
    72  H          0.29900000       0.17190000       0.77590000
    73  C          0.69091900      -0.00368700       0.20761400
    74  C          0.30908100       0.00368700       0.79238600
    75  H          0.59990000       0.00930000       0.23420000
    76  H          0.40010000      -0.00930000       0.76580000
    77  H          0.71060000       0.05690000       0.15020000
    78  H          0.28940000       0.94310000       0.84980000
    79  C          0.77520000      -0.00898600       0.29811300
    80  C          0.22480000       0.00898600       0.70188700
    81  H          0.86520000       0.97520000       0.27170000
    82  H          0.13480000       0.02480000       0.72830000
    83  H          0.75300000       0.93120000       0.35590000
    84  H          0.24700000       0.06880000       0.64410000
    85  C          0.75320000       0.10231500       0.34191500
    86  C          0.24680000       0.89768500       0.65808500
    87  H          0.76880000       0.16310000       0.28340000
    88  H          0.23120000       0.83690000       0.71660000
    89  H          0.66410000       0.11550000       0.37350000
    90  H          0.33590000       0.88450000       0.62650000
    91  C          0.84371900       0.09791300       0.42491300
    92  C          0.15628100       0.90208700       0.57508700
    93  H          0.93220000       0.07970000       0.39400000
    94  H          0.06780000       0.92030000       0.60600000
    95  H          0.82460000       0.03920000       0.48460000
    96  H          0.17540000       0.96080000       0.51540000
    97  C          0.83341700       0.20651400       0.46671400
    98  C          0.16658300       0.79348600       0.53328600
    99  H          0.74570000       0.22370000       0.49980000
   100  H          0.25430000       0.77630000       0.50020000
   101  H          0.85010000       0.26570000       0.40690000
   102  H          0.14990000       0.73430000       0.59310000
   103  C          0.92961700       0.20161200       0.54911400
   104  C          0.07038300       0.79838800       0.45088600
   105  H          0.91060000       0.14390000       0.60980000
   106  H          0.08940000       0.85610000       0.39020000
   107  H          0.01670000       0.18140000       0.51660000
   108  H          0.98330000       0.81860000       0.48340000
   109  C          0.92531700       0.30881400       0.58901500
   110  C          0.07468300       0.69118600       0.41098500
   111  H          0.94140000       0.36690000       0.52800000
   112  H          0.05860000       0.63310000       0.47200000
   113  H          0.83880000       0.32770000       0.62330000
   114  H          0.16120000       0.67230000       0.37670000
   115  C          0.01551700       0.30661400       0.66221600
   116  C          0.98448300       0.69338600       0.33778400
   117  H          0.10210000       0.29160000       0.62620000
   118  H          0.89790000       0.70840000       0.37380000
   119  H          0.00280000       0.24530000       0.72070000
   120  H         -0.00280000       0.75470000       0.27930000
   121  C          0.00930000       0.41031400       0.70901900
   122  C         -0.00930000       0.58968600       0.29098100
   123  H          0.07330000       0.39990000       0.75810000
   124  H          0.92670000       0.60010000       0.24190000
   125  H          0.92460000       0.42570000       0.74620000
   126  H          0.07540000       0.57430000       0.25380000
   127  H          0.02580000       0.47140000       0.65240000
   128  H          0.97420000       0.52860000       0.34760000
   129  N          0.36741400       0.37161500       0.53651100
   130  N          0.63258600       0.62838500       0.46348900
   131  N          0.64511300       0.37529000       0.83799000
   132  N          0.35488700       0.62471000       0.16201000
   133  N          0.67971200       0.43639000       0.90781000
   134  N          0.32028800       0.56361000       0.09219000
   135  O          0.52918000       0.54076000       0.81716000
   136  O          0.47082000       0.45924000       0.18284000
   137  O          0.63551200       0.89538000       0.08609000
   138  O          0.36448800       0.10462000       0.91391000
