data_CACWAH
_symmetry_space_group_name_H-M    'P1'
_symmetry_Int_Tables_number       1
loop_
_symmetry_equiv_pos_site_id
_symmetry_equiv_pos_as_xyz
1 x,y,z
_cell_length_a                   9.08985
_cell_length_b                   12.79278
_cell_length_c                   13.85317
_cell_angle_alpha                114.2736
_cell_angle_beta                 98.5135
_cell_angle_gamma                100.4455
loop_
_atom_site_label
_atom_site_type_symbol
_atom_site_fract_x
_atom_site_fract_y
_atom_site_fract_z
     1  C          0.76949000       0.22308000       0.29587000
     2  C          0.23051000       0.77692000       0.70413000
     3  C          0.71671000       0.28568000       0.38608000
     4  C          0.28329000       0.71432000       0.61392000
     5  C          0.63621000       0.23308000       0.43657000
     6  C          0.36379000       0.76692000       0.56343000
     7  C          0.60959000       0.11368000       0.39817000
     8  C          0.39041000       0.88632000       0.60183000
     9  C          0.65699000       0.04427000       0.30887000
    10  C          0.34301000       0.95573000       0.69113000
    11  C          0.73741000       0.10068000       0.25977000
    12  C          0.26259000       0.89932000       0.74023000
    13  F          0.74459000       0.40445000       0.42216000
    14  F          0.25541000       0.59555000       0.57784000
    15  F          0.53038000       0.05845000       0.44665000
    16  F          0.46962000       0.94155000       0.55335000
    17  F          0.78789000       0.03626000       0.17335000
    18  F          0.21211000       0.96374000       0.82665000
    19  I          0.89782700       0.30918600       0.22244500
    20  I          0.10217300       0.69081400       0.77755500
    21  I          0.56281800       0.33423600       0.57438500
    22  I          0.43718200       0.66576400       0.42561500
    23  I          0.61506800       0.85957500       0.25410600
    24  I          0.38493200       0.14042500       0.74589400
    25  C          0.86241300       0.47131200       0.87061000
    26  C          0.13758700       0.52868800       0.12939000
    27  H          0.88080000       0.41030000       0.81200000
    28  H          0.11920000       0.58970000       0.18800000
    29  C          0.77591100       0.44099000       0.93432000
    30  C          0.22408900       0.55901000       0.06568000
    31  H          0.74120000       0.36180000       0.92030000
    32  H          0.25880000       0.63820000       0.07970000
    33  C          0.74249000       0.53068000       0.01937000
    34  C          0.25751000       0.46932000       0.98063000
    35  C          0.80031200       0.64769000       0.03868000
    36  C          0.19968800       0.35231000       0.96132000
    37  H          0.78180000       0.71030000       0.09580000
    38  H          0.21820000       0.28970000       0.90420000
    39  C          0.88551200       0.66831000       0.97081000
    40  C          0.11448800       0.33169000       0.02919000
    41  H          0.92120000       0.74650000       0.98280000
    42  H          0.07880000       0.25350000       0.01720000
    43  C          0.64989000       0.50518000       0.08936000
    44  C          0.35011000       0.49482000       0.91064000
    45  C          0.52099000       0.40448000       0.15257000
    46  C          0.47901000       0.59552000       0.84743000
    47  C          0.44581000       0.29929000       0.16147000
    48  C          0.55419000       0.70071000       0.83853000
    49  C          0.44261200       0.18468000       0.08538000
    50  C          0.55738800       0.81532000       0.91462000
    51  H          0.48570000       0.17470000       0.02640000
    52  H          0.51430000       0.82530000       0.97360000
    53  C          0.37531400       0.08549000       0.09769000
    54  C          0.62468600       0.91451000       0.90231000
    55  H          0.37520000       0.00940000       0.04840000
    56  H          0.62480000      -0.00940000       0.95160000
    57  C          0.30801100       0.10269000       0.18508000
    58  C          0.69198900       0.89731000       0.81492000
    59  C          0.30601200       0.21739000       0.26038000
    60  C          0.69398800       0.78261000       0.73962000
    61  H          0.25890000       0.22730000       0.31750000
    62  H          0.74110000       0.77270000       0.68250000
    63  C          0.37511200       0.31379000       0.24708000
    64  C          0.62488800       0.68621000       0.75292000
    65  H          0.37460000       0.38970000       0.29590000
    66  H          0.62540000       0.61030000       0.70410000
    67  C          0.18361200       0.01239000       0.28368000
    68  C          0.81638800      -0.01239000       0.71632000
    69  H          0.09160000       0.03990000       0.27790000
    70  H          0.90840000       0.96010000       0.72210000
    71  H          0.25750000       0.06960000       0.35150000
    72  H          0.74250000       0.93040000       0.64850000
    73  C          0.14361300       0.89039000       0.28159000
    74  C          0.85638700       0.10961000       0.71841000
    75  H          0.06980000       0.83400000       0.21320000
    76  H          0.93020000       0.16600000       0.78680000
    77  H          0.23600000       0.86290000       0.28530000
    78  H          0.76400000       0.13710000       0.71470000
    79  C          0.07551100       0.89499000       0.37668000
    80  C          0.92448900       0.10501000       0.62332000
    81  H         -0.00910000       0.93170000       0.37740000
    82  H          0.00910000       0.06830000       0.62260000
    83  H          0.15380000       0.94500000       0.44440000
    84  H          0.84620000       0.05500000       0.55560000
    85  C          0.01631100       0.77351000       0.37238000
    86  C         -0.01631100       0.22649000       0.62762000
    87  H          0.93950000       0.72320000       0.30380000
    88  H          0.06050000       0.27680000       0.69620000
    89  H          0.10140000       0.73750000       0.37250000
    90  H          0.89860000       0.26250000       0.62750000
    91  C          0.94598700       0.77599000       0.46469000
    92  C          0.05401300       0.22401000       0.53531000
    93  H          0.86000000       0.81110000       0.46410000
    94  H          0.14000000       0.18890000       0.53590000
    95  H          0.02230000       0.82640000       0.53330000
    96  H          0.97770000       0.17360000       0.46670000
    97  C          0.88958500       0.65428900       0.45821000
    98  C          0.11041500       0.34571100       0.54179000
    99  H          0.84560000       0.66150000       0.51880000
   100  H          0.15440000       0.33850000       0.48120000
   101  H          0.97460000       0.61990000       0.46080000
   102  H          0.02540000       0.38010000       0.53920000
   103  H          0.81260000       0.60420000       0.39100000
   104  H          0.18740000       0.39580000       0.60900000
   105  N          0.92031000       0.58269000       0.88883000
   106  N          0.07969000       0.41731000       0.11117000
   107  N          0.61709000       0.58217000       0.17326000
   108  N          0.38291000       0.41783000       0.82674000
   109  N          0.52989000       0.51587000       0.21396000
   110  N          0.47011000       0.48413000       0.78604000
   111  O          0.59557000       0.39205000       0.07185000
   112  O          0.40443000       0.60795000       0.92815000
   113  O          0.24841100       0.00017000       0.19266000
   114  O          0.75158900      -0.00017000       0.80734000
