data_CADKID
_symmetry_space_group_name_H-M    'P1'
_symmetry_Int_Tables_number       1
loop_
_symmetry_equiv_pos_site_id
_symmetry_equiv_pos_as_xyz
1 x,y,z
_cell_length_a                   5.0841
_cell_length_b                   19.3714
_cell_length_c                   10.9582
_cell_angle_alpha                90.0
_cell_angle_beta                 90.2174
_cell_angle_gamma                90.0
loop_
_atom_site_label
_atom_site_type_symbol
_atom_site_fract_x
_atom_site_fract_y
_atom_site_fract_z
     1  Cl         0.01442000       0.08555300       0.52072900
     2  Cl        -0.01442000       0.58555300       0.47927100
     3  Cl         0.51688000       0.25515300       0.20722900
     4  Cl         0.48312000       0.75515300       0.79277100
     5  O          0.17688000       0.02407000       0.08364000
     6  O          0.82312000       0.52407000       0.91636000
     7  O          0.07347000       0.11308000       0.20443000
     8  O          0.92653000       0.61308000       0.79557000
     9  C          0.21671000       0.06707000       0.17084000
    10  C          0.78329000       0.56707000       0.82916000
    11  C          0.48021000       0.05157000       0.23375000
    12  C          0.51979000       0.55157000       0.76625000
    13  H          0.61390000       0.05680000       0.17840000
    14  H          0.38610000       0.55680000       0.82160000
    15  C          0.49791500       0.97926000       0.28197000
    16  C          0.50208500       0.47926000       0.71803000
    17  H          0.65810000       0.97400000       0.32760000
    18  H          0.34190000       0.47400000       0.67240000
    19  H          0.49670000       0.94730000       0.21490000
    20  H          0.50330000       0.44730000       0.78510000
    21  H          0.35040000       0.97020000       0.33390000
    22  H          0.64960000       0.47020000       0.66610000
    23  N          0.51308000       0.10208000       0.33484000
    24  N          0.48692000       0.60208000       0.66516000
    25  H          0.37910000       0.09820000       0.38640000
    26  H          0.62090000       0.59820000       0.61360000
    27  H          0.51640000       0.14470000       0.30430000
    28  H          0.48360000       0.64470000       0.69570000
    29  H          0.66310000       0.09370000       0.37410000
    30  H          0.33690000       0.59370000       0.62590000
    31  H         -0.01110000       0.02160000       0.01050000
    32  H          0.01110000       0.52160000      -0.01050000
    33  O          0.78322000       0.02488000       0.95956000
    34  O          0.21678000       0.52488000       0.04044000
    35  O          0.90523000       0.11858000       0.85607000
    36  O          0.09477000       0.61858000       0.14393000
    37  C          0.75731000       0.07087000       0.87736000
    38  C          0.24269000       0.57087000       0.12264000
    39  C          0.51039000       0.05997000       0.80015000
    40  C          0.48961000       0.55997000       0.19985000
    41  H          0.34810000       0.06680000       0.85660000
    42  H          0.65190000       0.56680000       0.14340000
    43  C          0.50548600       0.99086000       0.73853000
    44  C          0.49451400       0.49086000       0.26147000
    45  H          0.35410000       0.98800000       0.68620000
    46  H          0.64590000       0.48800000       0.31380000
    47  H          0.49710000       0.95520000       0.79910000
    48  H          0.50290000       0.45520000       0.20090000
    49  H          0.66210000       0.98530000       0.69100000
    50  H          0.33790000       0.48530000       0.30900000
    51  N          0.50002000       0.11687000       0.70956000
    52  N          0.49998000       0.61687000       0.29044000
    53  H          0.64550000       0.11640000       0.66460000
    54  H          0.35450000       0.61640000       0.33540000
    55  H          0.48830000       0.15720000       0.74840000
    56  H          0.51170000       0.65720000       0.25160000
    57  H          0.36030000       0.11140000       0.66140000
    58  H          0.63970000       0.61140000       0.33860000
    59  O          0.65352000       0.32187000       0.63056000
    60  O          0.34648000       0.82187000       0.36944000
    61  H          0.45690000       0.30470000       0.68850000
    62  H          0.54310000       0.80470000       0.31150000
    63  O          0.56923000       0.22728000       0.52087000
    64  O          0.43077000       0.72728000       0.47913000
    65  C          0.70549000       0.27627000       0.54936000
    66  C          0.29451000       0.77627000       0.45064000
    67  C          0.96819000       0.28946000       0.48895000
    68  C          0.03181000       0.78946000       0.51105000
    69  H          0.11711000       0.28170000       0.54450000
    70  H          0.88289000       0.78170000       0.45550000
    71  C         -0.00521500       0.36196000       0.43533000
    72  C          0.00521500       0.86196000       0.56467000
    73  H          0.16610000       0.36710000       0.40000000
    74  H          0.83390000       0.86710000       0.60000000
    75  H          0.97220000       0.39560000       0.49880000
    76  H          0.02780000       0.89560000       0.50120000
    77  H          0.86290000       0.36870000       0.37360000
    78  H          0.13710000       0.86870000       0.62640000
    79  N          0.00997000       0.23738000       0.39186000
    80  N         -0.00997000       0.73738000       0.60814000
    81  H          0.00930000       0.19530000       0.42460000
    82  H         -0.00930000       0.69530000       0.57540000
    83  H          0.16390000       0.24490000       0.35600000
    84  H          0.83610000       0.74490000       0.64400000
    85  H          0.88140000       0.24050000       0.33680000
    86  H          0.11860000       0.74050000       0.66320000
    87  O          0.26243000       0.31798000       0.75827000
    88  O          0.73757000       0.81798000       0.24173000
    89  O          0.40523000       0.22848000       0.86707000
    90  O          0.59477000       0.72848000       0.13293000
    91  C          0.24841000       0.27517000       0.84616000
    92  C          0.75159000       0.77517000       0.15384000
    93  C          0.01191000       0.28477000       0.92765000
    94  C         -0.01191000       0.78477000       0.07235000
    95  H          0.85590000       0.28070000       0.88660000
    96  H          0.14410000       0.78070000       0.11340000
    97  C          0.01498200       0.35377000      -0.00687000
    98  C         -0.01498200       0.85377000       0.00687000
    99  H          0.87330000       0.35540000       0.05080000
   100  H          0.12670000       0.85540000       0.94920000
   101  H         -0.00570000       0.39040000       0.93480000
   102  H          0.00570000       0.89040000       0.06520000
   103  H          0.17940000       0.35930000       0.03550000
   104  H          0.82060000       0.85930000       0.96450000
   105  N          0.00181000       0.22747000       0.01674000
   106  N         -0.00181000       0.72747000       0.98326000
   107  H          0.14620000       0.22810000       0.06290000
   108  H          0.85380000       0.72810000       0.93710000
   109  H         -0.00750000       0.18750000       0.97690000
   110  H          0.00750000       0.68750000       0.02310000
   111  H          0.86080000       0.23230000       0.06380000
   112  H          0.13920000       0.73230000       0.93620000
