data_CADLIE
_symmetry_space_group_name_H-M    'P1'
_symmetry_Int_Tables_number       1
loop_
_symmetry_equiv_pos_site_id
_symmetry_equiv_pos_as_xyz
1 x,y,z
_cell_length_a                   12.81884
_cell_length_b                   12.81884
_cell_length_c                   16.08767
_cell_angle_alpha                90.0
_cell_angle_beta                 90.0
_cell_angle_gamma                90.0
loop_
_atom_site_label
_atom_site_type_symbol
_atom_site_fract_x
_atom_site_fract_y
_atom_site_fract_z
     1  Cl        -0.00795500       0.31726500       0.12759300
     2  Cl         0.00795500       0.68273500       0.62759300
     3  Cl         0.18273500       0.49204500       0.37759300
     4  Cl         0.81726500       0.50795500       0.87759300
     5  Cl         0.50795500       0.81726500       0.12240700
     6  Cl         0.49204500       0.18273500       0.62240700
     7  Cl         0.31726500      -0.00795500       0.87240700
     8  Cl         0.68273500       0.00795500       0.37240700
     9  O          0.43724850       0.12101180       0.21465100
    10  O          0.56275150       0.87898820       0.71465100
    11  O          0.37898820       0.93724850       0.46465100
    12  O          0.62101180       0.06275150       0.96465100
    13  O          0.06275150       0.62101180       0.03534900
    14  O          0.93724850       0.37898820       0.53534900
    15  O          0.12101180       0.43724850       0.78534900
    16  O          0.87898820       0.56275150       0.28534900
    17  O          0.43962860       0.20029120       0.09098100
    18  O          0.56037140       0.79970880       0.59098100
    19  O          0.29970880       0.93962860       0.34098100
    20  O          0.70029120       0.06037140       0.84098100
    21  O          0.06037140       0.70029120       0.15901900
    22  O          0.93962860       0.29970880       0.65901900
    23  O          0.20029120       0.43962860       0.90901900
    24  O          0.79970880       0.56037140       0.40901900
    25  C          0.41172850       0.12872170       0.14203120
    26  C          0.58827150       0.87127830       0.64203120
    27  C          0.37127830       0.91172850       0.39203120
    28  C          0.62872170       0.08827150       0.89203120
    29  C          0.08827150       0.62872170       0.10796880
    30  C          0.91172850       0.37127830       0.60796880
    31  C          0.12872170       0.41172850       0.85796880
    32  C          0.87127830       0.58827150       0.35796880
    33  C          0.34067860       0.04687150       0.10355100
    34  C          0.65932140       0.95312850       0.60355100
    35  C          0.45312850       0.84067860       0.35355100
    36  C          0.54687150       0.15932140       0.85355100
    37  C          0.15932140       0.54687150       0.14644900
    38  C          0.84067860       0.45312850       0.64644900
    39  C          0.04687150       0.34067860       0.89644900
    40  C          0.95312850       0.65932140       0.39644900
    41  H          0.37628300       0.01431600       0.05901300
    42  H          0.62371700       0.98568400       0.55901300
    43  H          0.48568400       0.87628300       0.30901300
    44  H          0.51431600       0.12371700       0.80901300
    45  H          0.12371700       0.51431600       0.19098700
    46  H          0.87628300       0.48568400       0.69098700
    47  H          0.01431600       0.37628300       0.94098700
    48  H          0.98568400       0.62371700       0.44098700
    49  N          0.32110840       0.96073820       0.16344110
    50  N          0.67889160       0.03926180       0.66344110
    51  N          0.53926180       0.82110840       0.41344110
    52  N          0.46073820       0.17889160       0.91344110
    53  N          0.17889160       0.46073820       0.08655890
    54  N          0.82110840       0.53926180       0.58655890
    55  N          0.96073820       0.32110840       0.83655890
    56  N          0.03926180       0.67889160       0.33655890
    57  H          0.32110000       0.98510000       0.21590000
    58  H          0.67890000       0.01490000       0.71590000
    59  H          0.51490000       0.82110000       0.46590000
    60  H          0.48510000       0.17890000       0.96590000
    61  H          0.17890000       0.48510000       0.03410000
    62  H          0.82110000       0.51490000       0.53410000
    63  H          0.98510000       0.32110000       0.78410000
    64  H          0.01490000       0.67890000       0.28410000
    65  H          0.37070000       0.91140000       0.15890000
    66  H          0.62930000       0.08860000       0.65890000
    67  H          0.58860000       0.87070000       0.40890000
    68  H          0.41140000       0.12930000       0.90890000
    69  H          0.12930000       0.41140000       0.09110000
    70  H          0.87070000       0.58860000       0.59110000
    71  H          0.91140000       0.37070000       0.84110000
    72  H          0.08860000       0.62930000       0.34110000
    73  C          0.21657000       0.91677000       0.14172000
    74  C          0.78343000       0.08323000       0.64172000
    75  C          0.58323000       0.71657000       0.39172000
    76  C          0.41677000       0.28343000       0.89172000
    77  C          0.28343000       0.41677000       0.10828000
    78  C          0.71657000       0.58323000       0.60828000
    79  C          0.91677000       0.21657000       0.85828000
    80  C          0.08323000       0.78343000       0.35828000
    81  H          0.22450000       0.85000000       0.11410000
    82  H          0.77550000       0.15000000       0.61410000
    83  H          0.65000000       0.72450000       0.36410000
    84  H          0.35000000       0.27550000       0.86410000
    85  H          0.27550000       0.35000000       0.13590000
    86  H          0.72450000       0.65000000       0.63590000
    87  H          0.85000000       0.22450000       0.88590000
    88  H          0.15000000       0.77550000       0.38590000
    89  H          0.17530000       0.90680000       0.19160000
    90  H          0.82470000       0.09320000       0.69160000
    91  H          0.59320000       0.67530000       0.44160000
    92  H          0.40680000       0.32470000       0.94160000
    93  H          0.32470000       0.40680000       0.05840000
    94  H          0.67530000       0.59320000       0.55840000
    95  H          0.90680000       0.17530000       0.80840000
    96  H          0.09320000       0.82470000       0.30840000
    97  C          0.16617000      -0.00923000       0.08693000
    98  C          0.83383000       0.00923000       0.58693000
    99  C          0.50923000       0.66617000       0.33693000
   100  C          0.49077000       0.33383000       0.83693000
   101  C          0.33383000       0.49077000       0.16307000
   102  C          0.66617000       0.50923000       0.66307000
   103  C         -0.00923000       0.16617000       0.91307000
   104  C          0.00923000       0.83383000       0.41307000
   105  H          0.09860000       0.00990000       0.10930000
   106  H          0.90140000      -0.00990000       0.60930000
   107  H          0.49010000       0.59860000       0.35930000
   108  H          0.50990000       0.40140000       0.85930000
   109  H          0.40140000       0.50990000       0.14070000
   110  H          0.59860000       0.49010000       0.64070000
   111  H          0.00990000       0.09860000       0.89070000
   112  H         -0.00990000       0.90140000       0.39070000
   113  H          0.15560000       0.95950000       0.03270000
   114  H          0.84440000       0.04050000       0.53270000
   115  H          0.54050000       0.65560000       0.28270000
   116  H          0.45950000       0.34440000       0.78270000
   117  H          0.34440000       0.45950000       0.21730000
   118  H          0.65560000       0.54050000       0.71730000
   119  H          0.95950000       0.15560000       0.96730000
   120  H          0.04050000       0.84440000       0.46730000
   121  C          0.23303830       0.08562000       0.07893150
   122  C          0.76696170       0.91438000       0.57893150
   123  C          0.41438000       0.73303830       0.32893150
   124  C          0.58562000       0.26696170       0.82893150
   125  C          0.26696170       0.58562000       0.17106850
   126  C          0.73303830       0.41438000       0.67106850
   127  C          0.08562000       0.23303830       0.92106850
   128  C          0.91438000       0.76696170       0.42106850
   129  H          0.20950000       0.14050000       0.11590000
   130  H          0.79050000       0.85950000       0.61590000
   131  H          0.35950000       0.70950000       0.36590000
   132  H          0.64050000       0.29050000       0.86590000
   133  H          0.29050000       0.64050000       0.13410000
   134  H          0.70950000       0.35950000       0.63410000
   135  H          0.14050000       0.20950000       0.88410000
   136  H          0.85950000       0.79050000       0.38410000
   137  H          0.23280000       0.11160000       0.02230000
   138  H          0.76720000       0.88840000       0.52230000
   139  H          0.38840000       0.73280000       0.27230000
   140  H          0.61160000       0.26720000       0.77230000
   141  H          0.26720000       0.61160000       0.22770000
   142  H          0.73280000       0.38840000       0.72770000
   143  H          0.11160000       0.23280000       0.97770000
   144  H          0.88840000       0.76720000       0.47770000
   145  O          0.56789850       0.32395150       0.14961110
   146  O          0.43210150       0.67604850       0.64961110
   147  O          0.17604850       0.06789850       0.39961110
   148  O          0.82395150       0.93210150       0.89961110
   149  O          0.93210150       0.82395150       0.10038890
   150  O          0.06789850       0.17604850       0.60038890
   151  O          0.32395150       0.56789850       0.85038890
   152  O          0.67604850       0.43210150       0.35038890
   153  H          0.51070000       0.26230000       0.12220000
   154  H          0.48930000       0.73770000       0.62220000
   155  H          0.23770000       0.01070000       0.37220000
   156  H          0.76230000      -0.01070000       0.87220000
   157  H         -0.01070000       0.76230000       0.12780000
   158  H          0.01070000       0.23770000       0.62780000
   159  H          0.26230000       0.51070000       0.87780000
   160  H          0.73770000       0.48930000       0.37780000
   161  O          0.64418000       0.33041180       0.02588110
   162  O          0.35582000       0.66958820       0.52588110
   163  O          0.16958820       0.14418000       0.27588110
   164  O          0.83041180       0.85582000       0.77588110
   165  O          0.85582000       0.83041180       0.22411890
   166  O          0.14418000       0.16958820       0.72411890
   167  O          0.33041180       0.64418000       0.97411890
   168  O          0.66958820       0.35582000       0.47411890
   169  C          0.63629820       0.35719160       0.09760120
   170  C          0.36370180       0.64280840       0.59760120
   171  C          0.14280840       0.13629820       0.34760120
   172  C          0.85719160       0.86370180       0.84760120
   173  C          0.86370180       0.85719160       0.15239880
   174  C          0.13629820       0.14280840       0.65239880
   175  C          0.35719160       0.63629820       0.90239880
   176  C          0.64280840       0.36370180       0.40239880
   177  C          0.70841840       0.43698170       0.13510130
   178  C          0.29158160       0.56301830       0.63510130
   179  C          0.06301830       0.20841840       0.38510130
   180  C          0.93698170       0.79158160       0.88510130
   181  C          0.79158160       0.93698170       0.11489870
   182  C          0.20841840       0.06301830       0.61489870
   183  C          0.43698170       0.70841840       0.86489870
   184  C          0.56301830       0.29158160       0.36489870
   185  H          0.73680000       0.40820000       0.18611600
   186  H          0.26320000       0.59180000       0.68611600
   187  H          0.09180000       0.23680000       0.43611600
   188  H          0.90820000       0.76320000       0.93611600
   189  H          0.76320000       0.90820000       0.06388400
   190  H          0.23680000       0.09180000       0.56388400
   191  H          0.40820000       0.73680000       0.81388400
   192  H          0.59180000       0.26320000       0.31388400
   193  N          0.79759860       0.45960160       0.07866110
   194  N          0.20240140       0.54039840       0.57866110
   195  N          0.04039840       0.29759860       0.32866110
   196  N          0.95960160       0.70240140       0.82866110
   197  N          0.70240140       0.95960160       0.17133890
   198  N          0.29759860       0.04039840       0.67133890
   199  N          0.45960160       0.79759860       0.92133890
   200  N          0.54039840       0.20240140       0.42133890
   201  H          0.77940000       0.44800000       0.02540000
   202  H          0.22060000       0.55200000       0.52540000
   203  H          0.05200000       0.27940000       0.27540000
   204  H          0.94800000       0.72060000       0.77540000
   205  H          0.72060000       0.94800000       0.22460000
   206  H          0.27940000       0.05200000       0.72460000
   207  H          0.44800000       0.77940000       0.97460000
   208  H          0.55200000       0.22060000       0.47460000
   209  H          0.85240000       0.41860000       0.09120000
   210  H          0.14760000       0.58140000       0.59120000
   211  H          0.08140000       0.35240000       0.34120000
   212  H          0.91860000       0.64760000       0.84120000
   213  H          0.64760000       0.91860000       0.15880000
   214  H          0.35240000       0.08140000       0.65880000
   215  H          0.41860000       0.85240000       0.90880000
   216  H          0.58140000       0.14760000       0.40880000
   217  C          0.82498000       0.57182000       0.09126160
   218  C          0.17502000       0.42818000       0.59126160
   219  C          0.92818000       0.32498000       0.34126160
   220  C          0.07182000       0.67502000       0.84126160
   221  C          0.67502000       0.07182000       0.15873840
   222  C          0.32498000       0.92818000       0.65873840
   223  C          0.57182000       0.82498000       0.90873840
   224  C          0.42818000       0.17502000       0.40873840
   225  H          0.87570000       0.57960000       0.13560000
   226  H          0.12430000       0.42040000       0.63560000
   227  H          0.92040000       0.37570000       0.38560000
   228  H          0.07960000       0.62430000       0.88560000
   229  H          0.62430000       0.07960000       0.11440000
   230  H          0.37570000       0.92040000       0.61440000
   231  H          0.57960000       0.87570000       0.86440000
   232  H          0.42040000       0.12430000       0.36440000
   233  H          0.85340000       0.60190000       0.04080000
   234  H          0.14660000       0.39810000       0.54080000
   235  H          0.89810000       0.35340000       0.29080000
   236  H          0.10190000       0.64660000       0.79080000
   237  H          0.64660000       0.10190000       0.20920000
   238  H          0.35340000       0.89810000       0.70920000
   239  H          0.60190000       0.85340000       0.95920000
   240  H          0.39810000       0.14660000       0.45920000
   241  C          0.72597000       0.62123000       0.11343000
   242  C          0.27403000       0.37877000       0.61343000
   243  C          0.87877000       0.22597000       0.36343000
   244  C          0.12123000       0.77403000       0.86343000
   245  C          0.77403000       0.12123000       0.13657000
   246  C          0.22597000       0.87877000       0.63657000
   247  C          0.62123000       0.72597000       0.88657000
   248  C          0.37877000       0.27403000       0.38657000
   249  H          0.73780000       0.67540000       0.15440000
   250  H          0.26220000       0.32460000       0.65440000
   251  H          0.82460000       0.23780000       0.40440000
   252  H          0.17540000       0.76220000       0.90440000
   253  H          0.76220000       0.17540000       0.09560000
   254  H          0.23780000       0.82460000       0.59560000
   255  H          0.67540000       0.73780000       0.84560000
   256  H          0.32460000       0.26220000       0.34560000
   257  H          0.69490000       0.65290000       0.06460000
   258  H          0.30510000       0.34710000       0.56460000
   259  H          0.84710000       0.19490000       0.31460000
   260  H          0.15290000       0.80510000       0.81460000
   261  H          0.80510000       0.15290000       0.18540000
   262  H          0.19490000       0.84710000       0.68540000
   263  H          0.65290000       0.69490000       0.93540000
   264  H          0.34710000       0.30510000       0.43540000
   265  C          0.65668000       0.54252000       0.14703000
   266  C          0.34332000       0.45748000       0.64703000
   267  C          0.95748000       0.15668000       0.39703000
   268  C          0.04252000       0.84332000       0.89703000
   269  C          0.84332000       0.04252000       0.10297000
   270  C          0.15668000       0.95748000       0.60297000
   271  C          0.54252000       0.65668000       0.85297000
   272  C          0.45748000       0.34332000       0.35297000
   273  H          0.59020000       0.54430000       0.11820000
   274  H          0.40980000       0.45570000       0.61820000
   275  H          0.95570000       0.09020000       0.36820000
   276  H          0.04430000       0.90980000       0.86820000
   277  H          0.90980000       0.04430000       0.13180000
   278  H          0.09020000       0.95570000       0.63180000
   279  H          0.54430000       0.59020000       0.88180000
   280  H          0.45570000       0.40980000       0.38180000
   281  H          0.64430000       0.55530000       0.20560000
   282  H          0.35570000       0.44470000       0.70560000
   283  H          0.94470000       0.14430000       0.45560000
   284  H          0.05530000       0.85570000       0.95560000
   285  H          0.85570000       0.05530000       0.04440000
   286  H          0.14430000       0.94470000       0.54440000
   287  H          0.55530000       0.64430000       0.79440000
   288  H          0.44470000       0.35570000       0.29440000
