data_CADLEA
_symmetry_space_group_name_H-M    'P1'
_symmetry_Int_Tables_number       1
loop_
_symmetry_equiv_pos_site_id
_symmetry_equiv_pos_as_xyz
1 x,y,z
_cell_length_a                   11.52901
_cell_length_b                   5.24701
_cell_length_c                   15.10501
_cell_angle_alpha                90.0
_cell_angle_beta                 108.0324
_cell_angle_gamma                90.0
loop_
_atom_site_label
_atom_site_type_symbol
_atom_site_fract_x
_atom_site_fract_y
_atom_site_fract_z
     1  Br         0.21341300       0.83025800       0.11657300
     2  Br         0.78658700       0.33025800       0.88342700
     3  O          0.89203000       0.79457000       0.07142000
     4  O          0.10797000       0.29457000       0.92858000
     5  O          0.80345000       0.70899000       0.17974000
     6  O          0.19655000       0.20899000       0.82026000
     7  H          0.76630000       0.84190000       0.16140000
     8  H          0.23370000       0.34190000       0.83860000
     9  C          0.87634000       0.66348000       0.13263000
    10  C          0.12366000       0.16348000       0.86737000
    11  C          0.94394000       0.41308000       0.16303000
    12  C          0.05606000       0.91308000       0.83697000
    13  H          0.88580000       0.27930000       0.16600000
    14  H          0.11420000       0.77930000       0.83400000
    15  N          0.00672000       0.34131100       0.09419190
    16  N         -0.00672000       0.84131100       0.90580810
    17  H          0.95230000       0.33060000       0.03780000
    18  H          0.04770000       0.83060000       0.96220000
    19  H          0.04330000       0.19120000       0.10970000
    20  H          0.95670000       0.69120000       0.89030000
    21  H          0.06210000       0.45910000       0.09390000
    22  H          0.93790000       0.95910000       0.90610000
    23  C          0.04096000       0.44371300       0.25935000
    24  C          0.95904000       0.94371300       0.74065000
    25  H          0.11790000       0.48580000       0.24940000
    26  H          0.88210000      -0.01420000       0.75060000
    27  H          0.01790000       0.58780000       0.29040000
    28  H          0.98210000       0.08780000       0.70960000
    29  C          0.06191100       0.21620000       0.32477000
    30  C          0.93808900       0.71620000       0.67523000
    31  H          0.08600000       0.06710000       0.29520000
    32  H          0.91400000       0.56710000       0.70480000
    33  C          0.97351200       0.14620000       0.36428000
    34  C          0.02648800       0.64620000       0.63572000
    35  H          0.96400000       0.27950000       0.40500000
    36  H          0.03600000       0.77950000       0.59500000
    37  H         -0.00260000      -0.00820000       0.39900000
    38  H          0.00260000       0.49180000       0.60100000
    39  H          0.89750000       0.12010000       0.31600000
    40  H          0.10250000       0.62010000       0.68400000
    41  C          0.18551500       0.33980000       0.40571200
    42  C          0.81448500       0.83980000       0.59428800
    43  H          0.16640000       0.50650000       0.42290000
    44  H          0.83360000       0.00650000       0.57710000
    45  H          0.25220000       0.35010000       0.38040000
    46  H          0.74780000       0.85010000       0.61960000
    47  H          0.20810000       0.23140000       0.45970000
    48  H          0.79190000       0.73140000       0.54030000
    49  O          0.52033000       0.93185000       0.07312000
    50  O          0.47967000       0.43185000       0.92688000
    51  O          0.68883000       0.10797000       0.16923000
    52  O          0.31117000       0.60797000       0.83077000
    53  C          0.57493000       0.10037000       0.12743000
    54  C          0.42507000       0.60037000       0.87257000
    55  C          0.50343000       0.32361200       0.14832000
    56  C          0.49657000       0.82361200       0.85168000
    57  H          0.54870000       0.48180000       0.14840000
    58  H          0.45130000      -0.01820000       0.85160000
    59  N          0.38473000       0.33491100       0.07252000
    60  N          0.61527000       0.83491100       0.92748000
    61  H          0.39820000       0.35800000       0.01810000
    62  H          0.60180000       0.85800000       0.98190000
    63  H          0.34060000       0.46390000       0.08290000
    64  H          0.65940000       0.96390000       0.91710000
    65  H          0.34440000       0.18950000       0.07100000
    66  H          0.65560000       0.68950000       0.92900000
    67  C          0.47773000       0.29631000       0.24173000
    68  C          0.52227000       0.79631000       0.75827000
    69  H          0.41850000       0.42510000       0.24440000
    70  H          0.58150000       0.92510000       0.75560000
    71  H          0.44010000       0.13140000       0.24270000
    72  H          0.55990000       0.63140000       0.75730000
    73  C          0.58735000       0.31981900       0.32943000
    74  C          0.41265000       0.81981900       0.67057000
    75  H          0.64660000       0.18860000       0.32670000
    76  H          0.35340000       0.68860000       0.67330000
    77  C          0.64849000       0.57241700       0.33606000
    78  C          0.35151000       0.07241700       0.66394000
    79  H          0.66190000       0.61090000       0.27790000
    80  H          0.33810000       0.11090000       0.72210000
    81  H          0.72520000       0.56770000       0.38470000
    82  H          0.27480000       0.06770000       0.61530000
    83  H          0.59740000       0.70130000       0.34980000
    84  H          0.40260000       0.20130000       0.65020000
    85  C          0.54578000       0.26481500       0.41494000
    86  C          0.45422000       0.76481500       0.58506000
    87  H          0.61470000       0.21330000       0.46600000
    88  H          0.38530000       0.71330000       0.53400000
    89  H          0.48610000       0.13080000       0.40030000
    90  H          0.51390000       0.63080000       0.59970000
    91  H          0.51050000       0.41600000       0.43150000
    92  H          0.48950000       0.91600000       0.56850000
