data_CAGXER
_symmetry_space_group_name_H-M    'P1'
_symmetry_Int_Tables_number       1
loop_
_symmetry_equiv_pos_site_id
_symmetry_equiv_pos_as_xyz
1 x,y,z
_cell_length_a                   6.8373
_cell_length_b                   15.4236
_cell_length_c                   13.6115
_cell_angle_alpha                90.0
_cell_angle_beta                 92.6628
_cell_angle_gamma                90.0
loop_
_atom_site_label
_atom_site_type_symbol
_atom_site_fract_x
_atom_site_fract_y
_atom_site_fract_z
     1  I          0.29667500       0.67319200       0.43910200
     2  I          0.20332500       0.17319200       0.06089800
     3  I          0.70332500       0.32680800       0.56089800
     4  I          0.79667500       0.82680800       0.93910200
     5  F          0.34114000       0.52587180       0.60452000
     6  F          0.15886000       0.02587180       0.89548000
     7  F          0.65886000       0.47412820       0.39548000
     8  F          0.84114000       0.97412820       0.10452000
     9  F          0.89375000       0.60133190       0.34492000
    10  F          0.60625000       0.10133190       0.15508000
    11  F          0.10625000       0.39866810       0.65508000
    12  F          0.39375000       0.89866810       0.84492000
    13  C          0.17236000       0.51433000       0.55183000
    14  C          0.32764000       0.01433000       0.94817000
    15  C          0.82764000       0.48567000       0.44817000
    16  C          0.67236000       0.98567000       0.05183000
    17  C          0.12406000       0.56803000       0.47383000
    18  C          0.37594000       0.06803000       0.02617000
    19  C          0.87594000       0.43197000       0.52617000
    20  C          0.62406000       0.93197000       0.97383000
    21  C          0.94703000       0.55243000       0.42313000
    22  C          0.55297000       0.05243000       0.07687000
    23  C          0.05297000       0.44757000       0.57687000
    24  C          0.44703000       0.94757000       0.92313000
    25  F          0.27194000       0.73104170       0.93152000
    26  F          0.22806000       0.23104170       0.56848000
    27  F          0.72806000       0.26895830       0.06848000
    28  F          0.77194000       0.76895830       0.43152000
    29  O          0.27294000       0.39070170       0.86012000
    30  O          0.22706000       0.89070170       0.63988000
    31  O          0.72706000       0.60929830       0.13988000
    32  O          0.77294000       0.10929830       0.36012000
    33  O          0.93066000       0.63647190       0.91513000
    34  O          0.56934000       0.13647190       0.58487000
    35  O          0.06934000       0.36352810       0.08487000
    36  O          0.43066000       0.86352810       0.41513000
    37  N          0.44095000       0.51682000       0.88113000
    38  N          0.05905000       0.01682000       0.61887000
    39  N          0.55905000       0.48318000       0.11887000
    40  N          0.94095000       0.98318000       0.38113000
    41  N          0.10575000       0.51542000       0.88563000
    42  N          0.39425000       0.01542000       0.61437000
    43  N          0.89425000       0.48458000       0.11437000
    44  N          0.60575000       0.98458000       0.38563000
    45  C          0.27445000       0.46993000       0.87423000
    46  C          0.22555000       0.96993000       0.62577000
    47  C          0.72555000       0.53007000       0.12577000
    48  C          0.77445000       0.03007000       0.37423000
    49  C          0.08866000       0.60283000       0.90423000
    50  C          0.41134000       0.10283000       0.59577000
    51  C          0.91134000       0.39717000       0.09577000
    52  C          0.58866000       0.89717000       0.40423000
    53  C          0.27536000       0.64623000       0.91093000
    54  C          0.22464000       0.14623000       0.58907000
    55  C          0.72464000       0.35377000       0.08907000
    56  C          0.77536000       0.85377000       0.41093000
    57  C          0.44416000       0.60443000       0.90063000
    58  C          0.05584000       0.10443000       0.59937000
    59  C          0.55584000       0.39557000       0.09937000
    60  C          0.94416000       0.89557000       0.40063000
    61  H          0.52960000       0.48830000       0.86730000
    62  H          0.97040000       0.98830000       0.63270000
    63  H          0.47040000       0.51170000       0.13270000
    64  H          0.02960000       0.01170000       0.36730000
    65  H          0.01160000       0.48830000       0.87530000
    66  H          0.48840000       0.98830000       0.62470000
    67  H         -0.01160000       0.51170000       0.12470000
    68  H          0.51160000       0.01170000       0.37530000
    69  H          0.57860000       0.63130000       0.91130000
    70  H          0.92140000       0.13130000       0.58870000
    71  H          0.42140000       0.36870000       0.08870000
    72  H          0.07860000       0.86870000       0.41130000
    73  F          0.75574000       0.06958150       0.78822000
    74  F          0.74426000       0.56958150       0.71178000
    75  F          0.24426000       0.93041850       0.21178000
    76  F          0.25574000       0.43041850       0.28822000
    77  O          0.77214000       0.41008170       0.86312000
    78  O          0.72786000       0.91008170       0.63688000
    79  O          0.22786000       0.58991830       0.13688000
    80  O          0.27214000       0.08991830       0.36312000
    81  O          0.41414000       0.16533190       0.80452000
    82  O          0.08586000       0.66533190       0.69548000
    83  O          0.58586000       0.83466810       0.19548000
    84  O          0.91414000       0.33466810       0.30452000
    85  N          0.93395000       0.28422000       0.83603000
    86  N          0.56605000       0.78422000       0.66397000
    87  N          0.06605000       0.71578000       0.16397000
    88  N          0.43395000       0.21578000       0.33603000
    89  N          0.59824000       0.28662000       0.83333000
    90  N          0.90176000       0.78662000       0.66667000
    91  N          0.40176000       0.71338000       0.16667000
    92  N          0.09824000       0.21338000       0.33333000
    93  C          0.76885000       0.33122000       0.84483000
    94  C          0.73115000       0.83122000       0.65517000
    95  C          0.23115000       0.66878000       0.15517000
    96  C          0.26885000       0.16878000       0.34483000
    97  C          0.57556000       0.19852000       0.81403000
    98  C          0.92444000       0.69852000       0.68597000
    99  C          0.42444000       0.80148000       0.18597000
   100  C          0.07556000       0.30148000       0.31403000
   101  C          0.76196000       0.15502000       0.80683000
   102  C          0.73804000       0.65502000       0.69317000
   103  C          0.23804000       0.84498000       0.19317000
   104  C          0.26196000       0.34498000       0.30683000
   105  C          0.93086000       0.19703000       0.81743000
   106  C          0.56914000       0.69703000       0.68257000
   107  C          0.06914000       0.80297000       0.18257000
   108  C          0.43086000       0.30297000       0.31743000
   109  H          0.03470000       0.31430000       0.84140000
   110  H          0.46530000       0.81430000       0.65860000
   111  H          0.96530000       0.68570000       0.15860000
   112  H          0.53470000       0.18570000       0.34140000
   113  H          0.50370000       0.31930000       0.83730000
   114  H         -0.00370000       0.81930000       0.66270000
   115  H          0.49630000       0.68070000       0.16270000
   116  H          0.00370000       0.18070000       0.33730000
   117  H          0.04860000       0.16930000       0.81130000
   118  H          0.45140000       0.66930000       0.68870000
   119  H          0.95140000       0.83070000       0.18870000
   120  H          0.54860000       0.33070000       0.31130000
