data_CAGXAN
_symmetry_space_group_name_H-M    'P1'
_symmetry_Int_Tables_number       1
loop_
_symmetry_equiv_pos_site_id
_symmetry_equiv_pos_as_xyz
1 x,y,z
_cell_length_a                   4.681215
_cell_length_b                   5.792419
_cell_length_c                   18.7876
_cell_angle_alpha                86.4726
_cell_angle_beta                 86.4096
_cell_angle_gamma                84.6975
loop_
_atom_site_label
_atom_site_type_symbol
_atom_site_fract_x
_atom_site_fract_y
_atom_site_fract_z
     1  I          0.71779130       0.61553110       0.67313300
     2  I          0.28220870       0.38446890       0.32686700
     3  F          0.62171100       0.21599000       0.56723000
     4  F          0.37828900       0.78401000       0.43277000
     5  F          0.83871100       0.12498000       0.43573000
     6  F          0.16128900       0.87502000       0.56427000
     7  C          0.88681600       0.54671200       0.57024000
     8  C          0.11318400       0.45328800       0.42976000
     9  C          0.81031600       0.35861300       0.53504000
    10  C          0.18968400       0.64138700       0.46496000
    11  C          0.92061600       0.31361200       0.46654000
    12  C          0.07938400       0.68638800       0.53346000
    13  O          0.72368900       0.73229000       0.00613000
    14  O          0.27631100       0.26771000      -0.00613000
    15  O          0.43021200       0.65329000       0.82853000
    16  O          0.56978800       0.34671000       0.17147000
    17  N          0.75438700       0.02831000       0.92033000
    18  N          0.24561300       0.97169000       0.07967000
    19  H          0.61052800       0.10803800       0.94023400
    20  H          0.38947200       0.89196200       0.05976600
    21  N          0.07851300       0.69971000       0.91643000
    22  N          0.92148700       0.30029000       0.08357000
    23  H          0.14233900       0.56792100       0.93562700
    24  H          0.85766100       0.43207900       0.06437300
    25  C          0.84358500       0.81471200       0.95074000
    26  C          0.15641500       0.18528800       0.04926000
    27  C          0.22241600       0.77691200       0.85354000
    28  C          0.77758400       0.22308800       0.14646000
    29  C          0.11461700       0.00561200       0.82384000
    30  C          0.88538300      -0.00561200       0.17616000
    31  C          0.25971800       0.10341400       0.75615000
    32  C          0.74028200       0.89658600       0.24385000
    33  H          0.19968900       0.02949700       0.71587800
    34  H          0.80031100       0.97050300       0.28412200
    35  H          0.46438000       0.07554700       0.75845100
    36  H          0.53562000       0.92445300       0.24154900
    37  H          0.20756400       0.26755500       0.75082200
    38  H          0.79243600       0.73244500       0.24917800
    39  C          0.88848400       0.11951200       0.85864000
    40  C          0.11151600       0.88048800       0.14136000
    41  H          0.81987700       0.26557200       0.84031700
    42  H          0.18012300       0.73442800       0.15968300
