data_CAJQIO
_symmetry_space_group_name_H-M    'P1'
_symmetry_Int_Tables_number       1
loop_
_symmetry_equiv_pos_site_id
_symmetry_equiv_pos_as_xyz
1 x,y,z
_cell_length_a                   27.4018
_cell_length_b                   4.838604
_cell_length_c                   18.1046
_cell_angle_alpha                90.0
_cell_angle_beta                 123.47114
_cell_angle_gamma                90.0
loop_
_atom_site_label
_atom_site_type_symbol
_atom_site_fract_x
_atom_site_fract_y
_atom_site_fract_z
     1  O          0.19864130       0.48120860       0.45932500
     2  O          0.80135870       0.48120860       0.04067500
     3  O          0.69864130      -0.01879140       0.45932500
     4  O          0.30135870      -0.01879140       0.04067500
     5  O          0.80135870       0.51879140       0.54067500
     6  O          0.19864130       0.51879140       0.95932500
     7  O          0.30135870       0.01879140       0.54067500
     8  O          0.69864130       0.01879140       0.95932500
     9  O          0.16629729       0.63163830       0.59419500
    10  O          0.83370271       0.63163830       0.90580500
    11  O          0.66629729       0.13163830       0.59419500
    12  O          0.33370271       0.13163830       0.90580500
    13  O          0.83370271       0.36836170       0.40580500
    14  O          0.16629729       0.36836170       0.09419500
    15  O          0.33370271       0.86836170       0.40580500
    16  O          0.66629729       0.86836170       0.09419500
    17  O          0.07046730       0.62586820       0.49356500
    18  O          0.92953270       0.62586820       0.00643500
    19  O          0.57046730       0.12586820       0.49356500
    20  O          0.42953270       0.12586820       0.00643500
    21  O          0.92953270       0.37413180       0.50643500
    22  O          0.07046730       0.37413180      -0.00643500
    23  O          0.42953270       0.87413180       0.50643500
    24  O          0.57046730       0.87413180      -0.00643500
    25  N          0.18947633       0.92351830       0.48953500
    26  N          0.81052367       0.92351830       0.01046500
    27  N          0.68947633       0.42351830       0.48953500
    28  N          0.31052367       0.42351830       0.01046500
    29  N          0.81052367       0.07648170       0.51046500
    30  N          0.18947633       0.07648170       0.98953500
    31  N          0.31052367       0.57648170       0.51046500
    32  N          0.68947633       0.57648170       0.98953500
    33  C          0.21841938       0.71393790       0.48493600
    34  C          0.78158062       0.71393790       0.01506400
    35  C          0.71841938       0.21393790       0.48493600
    36  C          0.28158062       0.21393790       0.01506400
    37  C          0.78158062       0.28606210       0.51506400
    38  C          0.21841938       0.28606210       0.98493600
    39  C          0.28158062       0.78606210       0.51506400
    40  C          0.71841938       0.78606210       0.98493600
    41  C          0.12896341       0.89343780       0.46214700
    42  C          0.87103659       0.89343780       0.03785300
    43  C          0.62896341       0.39343780       0.46214700
    44  C          0.37103659       0.39343780       0.03785300
    45  C          0.87103659       0.10656220       0.53785300
    46  C          0.12896341       0.10656220       0.96214700
    47  C          0.37103659       0.60656220       0.53785300
    48  C          0.62896341       0.60656220       0.96214700
    49  C          0.11966244       0.70114780       0.51865700
    50  C          0.88033756       0.70114780       0.98134300
    51  C          0.61966244       0.20114780       0.51865700
    52  C          0.38033756       0.20114780       0.98134300
    53  C          0.88033756       0.29885220       0.48134300
    54  C          0.11966244       0.29885220       0.01865700
    55  C          0.38033756       0.79885220       0.48134300
    56  C          0.61966244       0.79885220       0.01865700
    57  H          0.20850000       0.09680000       0.51110000
    58  H          0.79150000       0.09680000       0.98890000
    59  H          0.70850000       0.59680000       0.51110000
    60  H          0.29150000       0.59680000       0.98890000
    61  H          0.79150000       0.90320000       0.48890000
    62  H          0.20850000       0.90320000       0.01110000
    63  H          0.29150000       0.40320000       0.48890000
    64  H          0.70850000       0.40320000       0.01110000
    65  H          0.15690000       0.46070000       0.63080000
    66  H          0.84310000       0.46070000       0.86920000
    67  H          0.65690000       0.96070000       0.63080000
    68  H          0.34310000       0.96070000       0.86920000
    69  H          0.84310000       0.53930000       0.36920000
    70  H          0.15690000       0.53930000       0.13080000
    71  H          0.34310000       0.03930000       0.36920000
    72  H          0.65690000       0.03930000       0.13080000
    73  H          0.11470000       0.07080000       0.46370000
    74  H          0.88530000       0.07080000       0.03630000
    75  H          0.61470000       0.57080000       0.46370000
    76  H          0.38530000       0.57080000       0.03630000
    77  H          0.88530000       0.92920000       0.53630000
    78  H          0.11470000       0.92920000       0.96370000
    79  H          0.38530000       0.42920000       0.53630000
    80  H          0.61470000       0.42920000       0.96370000
    81  H          0.10710000       0.82510000       0.40320000
    82  H          0.89290000       0.82510000       0.09680000
    83  H          0.60710000       0.32510000       0.40320000
    84  H          0.39290000       0.32510000       0.09680000
    85  H          0.89290000       0.17490000       0.59680000
    86  H          0.10710000       0.17490000       0.90320000
    87  H          0.39290000       0.67490000       0.59680000
    88  H          0.60710000       0.67490000       0.90320000
    89  O         -0.00000000       0.90466790       0.25000000
    90  O          0.50000000       0.40466790       0.25000000
    91  O         -0.00000000       0.09533210       0.75000000
    92  O          0.50000000       0.59533210       0.75000000
    93  N          0.01128937       0.30865180       0.19813600
    94  N          0.98871063       0.30865180       0.30186400
    95  N          0.51128937       0.80865180       0.19813600
    96  N          0.48871063       0.80865180       0.30186400
    97  N          0.98871063       0.69134820       0.80186400
    98  N          0.01128937       0.69134820       0.69813600
    99  N          0.48871063       0.19134820       0.80186400
   100  N          0.51128937       0.19134820       0.69813600
   101  N          0.14859636       0.74042800       0.17637600
   102  N          0.85140364       0.74042800       0.32362400
   103  N          0.64859636       0.24042800       0.17637600
   104  N          0.35140364       0.24042800       0.32362400
   105  N          0.85140364       0.25957200       0.82362400
   106  N          0.14859636       0.25957200       0.67637600
   107  N          0.35140364       0.75957200       0.82362400
   108  N          0.64859636       0.75957200       0.67637600
   109  C         -0.00000000       0.16028300       0.25000000
   110  C          0.50000000       0.66028300       0.25000000
   111  C         -0.00000000       0.83971700       0.75000000
   112  C          0.50000000       0.33971700       0.75000000
   113  C          0.02375044       0.17590240       0.13906700
   114  C          0.97624956       0.17590240       0.36093300
   115  C          0.52375044       0.67590240       0.13906700
   116  C          0.47624956       0.67590240       0.36093300
   117  C          0.97624956       0.82409760       0.86093300
   118  C          0.02375044       0.82409760       0.63906700
   119  C          0.47624956       0.32409760       0.86093300
   120  C          0.52375044       0.32409760       0.63906700
   121  C          0.09550541       0.85047780       0.14321700
   122  C          0.90449459       0.85047780       0.35678300
   123  C          0.59550541       0.35047780       0.14321700
   124  C          0.40449459       0.35047780       0.35678300
   125  C          0.90449459       0.14952220       0.85678300
   126  C          0.09550541       0.14952220       0.64321700
   127  C          0.40449459       0.64952220       0.85678300
   128  C          0.59550541       0.64952220       0.64321700
   129  C          0.08476341       0.05847220       0.18357600
   130  C          0.91523659       0.05847220       0.31642400
   131  C          0.58476341       0.55847220       0.18357600
   132  C          0.41523659       0.55847220       0.31642400
   133  C          0.91523659       0.94152780       0.81642400
   134  C          0.08476341       0.94152780       0.68357600
   135  C          0.41523659       0.44152780       0.81642400
   136  C          0.58476341       0.44152780       0.68357600
   137  C          0.13197500       0.15971230       0.26331700
   138  C          0.86802500       0.15971230       0.23668300
   139  C          0.63197500       0.65971230       0.26331700
   140  C          0.36802500       0.65971230       0.23668300
   141  C          0.86802500       0.84028770       0.73668300
   142  C          0.13197500       0.84028770       0.76331700
   143  C          0.36802500       0.34028770       0.73668300
   144  C          0.63197500       0.34028770       0.76331700
   145  C          0.18702444       0.04849250       0.29756700
   146  C          0.81297556       0.04849250       0.20243300
   147  C          0.68702444       0.54849250       0.29756700
   148  C          0.31297556       0.54849250       0.20243300
   149  C          0.81297556       0.95150750       0.70243300
   150  C          0.18702444       0.95150750       0.79756700
   151  C          0.31297556       0.45150750       0.70243300
   152  C          0.68702444       0.45150750       0.79756700
   153  C          0.19370243       0.84118750       0.25298700
   154  C          0.80629757       0.84118750       0.24701300
   155  C          0.69370243       0.34118750       0.25298700
   156  C          0.30629757       0.34118750       0.24701300
   157  C          0.80629757       0.15881250       0.74701300
   158  C          0.19370243       0.15881250       0.75298700
   159  C          0.30629757       0.65881250       0.74701300
   160  C          0.69370243       0.65881250       0.75298700
   161  H          0.01100000       0.50470000       0.20050000
   162  H          0.98900000       0.50470000       0.29950000
   163  H          0.51100000       0.00470000       0.20050000
   164  H          0.48900000       0.00470000       0.29950000
   165  H          0.98900000       0.49530000       0.79950000
   166  H          0.01100000       0.49530000       0.70050000
   167  H          0.48900000      -0.00470000       0.79950000
   168  H          0.51100000      -0.00470000       0.70050000
   169  H          0.01860000       0.30810000       0.09650000
   170  H          0.98140000       0.30810000       0.40350000
   171  H          0.51860000       0.80810000       0.09650000
   172  H          0.48140000       0.80810000       0.40350000
   173  H          0.98140000       0.69190000       0.90350000
   174  H          0.01860000       0.69190000       0.59650000
   175  H          0.48140000       0.19190000       0.90350000
   176  H          0.51860000       0.19190000       0.59650000
   177  H         -0.00340000       0.02910000       0.11000000
   178  H          0.00340000       0.02910000       0.39000000
   179  H          0.49660000       0.52910000       0.11000000
   180  H          0.50340000       0.52910000       0.39000000
   181  H          0.00340000       0.97090000       0.89000000
   182  H         -0.00340000       0.97090000       0.61000000
   183  H          0.50340000       0.47090000       0.89000000
   184  H          0.49660000       0.47090000       0.61000000
   185  H          0.06360000       0.78010000       0.08870000
   186  H          0.93640000       0.78010000       0.41130000
   187  H          0.56360000       0.28010000       0.08870000
   188  H          0.43640000       0.28010000       0.41130000
   189  H          0.93640000       0.21990000       0.91130000
   190  H          0.06360000       0.21990000       0.58870000
   191  H          0.43640000       0.71990000       0.91130000
   192  H          0.56360000       0.71990000       0.58870000
   193  H          0.23160000       0.76540000       0.27700000
   194  H          0.76840000       0.76540000       0.22300000
   195  H          0.73160000       0.26540000       0.27700000
   196  H          0.26840000       0.26540000       0.22300000
   197  H          0.76840000       0.23460000       0.72300000
   198  H          0.23160000       0.23460000       0.77700000
   199  H          0.26840000       0.73460000       0.72300000
   200  H          0.73160000       0.73460000       0.77700000
   201  H          0.21980000       0.11620000       0.35160000
   202  H          0.78020000       0.11620000       0.14840000
   203  H          0.71980000       0.61620000       0.35160000
   204  H          0.28020000       0.61620000       0.14840000
   205  H          0.78020000       0.88380000       0.64840000
   206  H          0.21980000       0.88380000       0.85160000
   207  H          0.28020000       0.38380000       0.64840000
   208  H          0.71980000       0.38380000       0.85160000
   209  H          0.12650000       0.30330000       0.29380000
   210  H          0.87350000       0.30330000       0.20620000
   211  H          0.62650000       0.80330000       0.29380000
   212  H          0.37350000       0.80330000       0.20620000
   213  H          0.87350000       0.69670000       0.70620000
   214  H          0.12650000       0.69670000       0.79380000
   215  H          0.37350000       0.19670000       0.70620000
   216  H          0.62650000       0.19670000       0.79380000
