data_CALKEH
_symmetry_space_group_name_H-M    'P1'
_symmetry_Int_Tables_number       1
loop_
_symmetry_equiv_pos_site_id
_symmetry_equiv_pos_as_xyz
1 x,y,z
_cell_length_a                   6.91975
_cell_length_b                   14.426312
_cell_length_c                   14.47509
_cell_angle_alpha                81.7042
_cell_angle_beta                 79.078118
_cell_angle_gamma                85.6472
loop_
_atom_site_label
_atom_site_type_symbol
_atom_site_fract_x
_atom_site_fract_y
_atom_site_fract_z
     1  Cl         0.90846800       0.11798400       0.70384600
     2  Cl         0.09153200       0.88201600       0.29615400
     3  O          0.78752000       0.49754100       0.92469900
     4  O          0.21248000       0.50245900       0.07530100
     5  O          0.73072000       0.39169110       0.05393100
     6  O          0.26928000       0.60830890       0.94606900
     7  O          0.67143000       0.06281120      -0.00799130
     8  O          0.32857000       0.93718880       0.00799130
     9  O          0.92633000       0.01878120       0.89472870
    10  O          0.07367000       0.98121880       0.10527130
    11  N          0.80533000       0.07913120       0.92518870
    12  N          0.19467000       0.92086880       0.07481130
    13  C          0.80833000       0.33866140       0.90249870
    14  C          0.19167000       0.66133860       0.09750130
    15  C          0.78803000       0.24528140       0.94003860
    16  C          0.21197000       0.75471860       0.05996140
    17  H          0.74960000       0.22840000       0.00660000
    18  H          0.25040000       0.77160000      -0.00660000
    19  C          0.82383000       0.17658140       0.88030860
    20  C          0.17617000       0.82341860       0.11969140
    21  C          0.87613000       0.20009140       0.78184860
    22  C          0.12387000       0.79990860       0.21815140
    23  C          0.89413000       0.29344140       0.74521860
    24  C          0.10587000       0.70655860       0.25478140
    25  H          0.92850000       0.31060000       0.67850000
    26  H          0.07150000       0.68940000       0.32150000
    27  C          0.86233000       0.36230140       0.80461870
    28  C          0.13767000       0.63769860       0.19538130
    29  H          0.87750000       0.42620000       0.77850000
    30  H          0.12250000       0.57380000       0.22150000
    31  C          0.77143000       0.41187140       0.96867860
    32  C          0.22857000       0.58812860       0.03132140
    33  H          0.75550000       0.54430000       0.97170000
    34  H          0.24450000       0.45570000       0.02830000
    35  Cl         0.44568800       0.11350400       0.20068400
    36  Cl         0.55431200       0.88649600       0.79931600
    37  O          0.24163000       0.41899110       0.51448110
    38  O          0.75837000       0.58100890       0.48551890
    39  O          0.29462000       0.52181100       0.38222110
    40  O          0.70538000       0.47818900       0.61777890
    41  O          0.33893000       0.09591110       0.50899110
    42  O          0.66107000       0.90408890       0.49100890
    43  O          0.29703000       0.03085110       0.39038120
    44  O          0.70297000       0.96914890       0.60961880
    45  N          0.32452000       0.09936120       0.42563120
    46  N          0.67548000       0.90063880       0.57436880
    47  C          0.31953000       0.35862140       0.36924140
    48  C          0.68047000       0.64137860       0.63075860
    49  C          0.30453000       0.26855140       0.41692140
    50  C          0.69547000       0.73144860       0.58307860
    51  H          0.26880000       0.25930000       0.48420000
    52  H          0.73120000       0.74070000       0.51580000
    53  C          0.34093000       0.19156130       0.36776130
    54  C          0.65907000       0.80843870       0.63223870
    55  C          0.39273000       0.20401140       0.26844140
    56  C          0.60727000       0.79598860       0.73155860
    57  C          0.40883000       0.29465150       0.22163140
    58  C          0.59117000       0.70534850       0.77836860
    59  H          0.44590000       0.30430000       0.15450000
    60  H          0.55410000       0.69570000       0.84550000
    61  C          0.37193000       0.37094140       0.27075140
    62  C          0.62807000       0.62905860       0.72924860
    63  H          0.38240000       0.43250000       0.23710000
    64  H          0.61760000       0.56750000       0.76290000
    65  C          0.28313000       0.44220140       0.42219140
    66  C          0.71687000       0.55779860       0.57780860
    67  H          0.21650000       0.47930000       0.54530000
    68  H          0.78350000       0.52070000       0.45470000
    69  N          0.72773000       0.62891120       0.03523120
    70  N          0.27227000       0.37108880       0.96476880
    71  N          0.75353000       0.71534130       0.98262880
    72  N          0.24647000       0.28465870       0.01737120
    73  C          0.72713000       0.78899150       0.02742140
    74  C          0.27287000       0.21100850       0.97257860
    75  H          0.74430000       0.84870000      -0.00980000
    76  H          0.25570000       0.15130000       0.00980000
    77  C          0.67483000       0.78670140       0.12736130
    78  C          0.32517000       0.21329860       0.87263870
    79  C          0.64883000       0.86741150       0.17393150
    80  C          0.35117000       0.13258850       0.82606850
    81  H          0.66480000       0.92800000       0.13850000
    82  H          0.33520000       0.07200000       0.86150000
    83  C          0.60003000       0.85712160       0.27094150
    84  C          0.39997000       0.14287840       0.72905850
    85  H          0.58210000       0.91110000       0.30280000
    86  H          0.41790000       0.08890000       0.69720000
    87  C          0.57623000       0.76823170       0.32376150
    88  C          0.42377000       0.23176830       0.67623850
    89  H          0.54290000       0.76290000       0.39100000
    90  H          0.45710000       0.23710000       0.60900000
    91  C          0.60023000       0.68848150       0.28024140
    92  C          0.39977000       0.31151850       0.71975860
    93  H          0.58340000       0.62850000       0.31680000
    94  H          0.41660000       0.37150000       0.68320000
    95  C          0.65013000       0.69723140       0.18042140
    96  C          0.34987000       0.30276860       0.81957860
    97  C          0.67943000       0.62040140       0.12769140
    98  C          0.32057000       0.37959860       0.87230860
    99  H          0.66320000       0.55910000       0.16150000
   100  H          0.33680000       0.44090000       0.83850000
   101  N          0.19632000       0.56614120       0.60132120
   102  N          0.80368000       0.43385880       0.39867880
   103  N          0.15093000       0.54527120       0.69854120
   104  N          0.84907000       0.45472880       0.30145880
   105  C          0.11523000       0.61542140       0.74862140
   106  C          0.88477000       0.38457860       0.25137860
   107  H          0.08070000       0.60090000       0.81560000
   108  H          0.91930000       0.39910000       0.18440000
   109  C          0.12423000       0.71131140       0.71005140
   110  C          0.87577000       0.28868860       0.28994860
   111  C          0.08603000       0.78511150       0.76636150
   112  C          0.91397000       0.21488850       0.23363850
   113  H          0.05110000       0.77200000       0.83350000
   114  H          0.94890000       0.22800000       0.16650000
   115  C          0.09993000       0.87563150       0.72323170
   116  C          0.90007000       0.12436850       0.27676830
   117  H          0.07410000       0.92560000       0.76070000
   118  H          0.92590000       0.07440000       0.23930000
   119  C          0.15193000       0.89573150       0.62415170
   120  C          0.84807000       0.10426850       0.37584830
   121  H          0.16190000       0.95920000       0.59560000
   122  H          0.83810000       0.04080000       0.40440000
   123  C          0.18863000       0.82524150       0.56790150
   124  C          0.81137000       0.17475850       0.43209850
   125  H          0.22290000       0.83960000       0.50090000
   126  H          0.77710000       0.16040000       0.49910000
   127  C          0.17463000       0.73151130       0.61081140
   128  C          0.82537000       0.26848870       0.38918860
   129  C          0.20833000       0.65275150       0.56057140
   130  C          0.79167000       0.34724850       0.43942860
   131  H          0.24150000       0.66370000       0.49330000
   132  H          0.75850000       0.33630000       0.50670000
