data_CAMDIH
_symmetry_space_group_name_H-M    'P1'
_symmetry_Int_Tables_number       1
loop_
_symmetry_equiv_pos_site_id
_symmetry_equiv_pos_as_xyz
1 x,y,z
_cell_length_a                   6.02133
_cell_length_b                   7.45883
_cell_length_c                   16.87998
_cell_angle_alpha                90.0
_cell_angle_beta                 100.2264
_cell_angle_gamma                90.0
loop_
_atom_site_label
_atom_site_type_symbol
_atom_site_fract_x
_atom_site_fract_y
_atom_site_fract_z
     1  C          0.70351000       0.48709000       0.11384000
     2  C          0.29649000      -0.01291000       0.88616000
     3  H          0.84610300       0.54419800       0.11814600
     4  H          0.15389700       0.04419800       0.88185400
     5  C          0.53671000       0.51668000       0.04694000
     6  C          0.46329000       0.01668000       0.95306000
     7  H          0.56594700       0.59272900       0.00475600
     8  H          0.43405300       0.09272900      -0.00475600
     9  C          0.32789000       0.43508000       0.04153000
    10  C          0.67211000       0.93508000       0.95847000
    11  C          0.29069000       0.32108000       0.10364000
    12  C          0.70931000       0.82108000       0.89636000
    13  H          0.14924900       0.26270100       0.10119700
    14  H          0.85075100       0.76270100       0.89880300
    15  C          0.46239000       0.29438000       0.16873000
    16  C          0.53761000       0.79438000       0.83127000
    17  H          0.43884900       0.21667400       0.21104000
    18  H          0.56115100       0.71667400       0.78896000
    19  C          0.14909000       0.46378000       0.96706000
    20  C          0.85091000       0.96378000       0.03294000
    21  C          0.84519000       0.33439000       0.24054000
    22  C          0.15481000       0.83439000       0.75946000
    23  H          0.78078500       0.30841700       0.28865000
    24  H          0.21921500       0.80841700       0.71135000
    25  H          0.94765300       0.43695500       0.25093700
    26  H          0.05234700       0.93695500       0.74906300
    27  H          0.92871400       0.22930900       0.22681600
    28  H          0.07128600       0.72930900       0.77318400
    29  O          0.18767000       0.55976000       0.91227000
    30  O          0.81233000       0.05976000       0.08773000
    31  O          0.96653000       0.37737000       0.97127000
    32  O          0.03347000       0.87737000       0.02873000
    33  N          0.66118000       0.37677000       0.17253000
    34  N          0.33882000       0.87677000       0.82747000
    35  H          0.81800000       0.41300000       0.93388000
    36  H          0.18200000       0.91300000       0.06612000
    37  C          0.09671000       0.33338000       0.67436000
    38  C          0.90329000       0.83338000       0.32564000
    39  H          0.96104100       0.39748900       0.67528400
    40  H          0.03895900       0.89748900       0.32471600
    41  C          0.27391000       0.34868000       0.73796000
    42  C          0.72609000       0.84868000       0.26204000
    43  H          0.26079900       0.42114300       0.78319300
    44  H          0.73920100       0.92114300       0.21680700
    45  C          0.47311000       0.25558000       0.73476000
    46  C          0.52689000       0.75558000       0.26524000
    47  C          0.48661000       0.15131100       0.66917000
    48  C          0.51339000       0.65131100       0.33083000
    49  H          0.62264500       0.08887300       0.66644200
    50  H          0.37735500       0.58887300       0.33355800
    51  C          0.30441000       0.13578000       0.60676000
    52  C          0.69559000       0.63578000       0.39324000
    53  H          0.31347400       0.06109900       0.56181800
    54  H          0.68652600       0.56109900       0.43818200
    55  C          0.67819000       0.27108000       0.80226000
    56  C          0.32181000       0.77108000       0.19774000
    57  C          0.91781000       0.20731500       0.54346000
    58  C          0.08219000       0.70731500       0.45654000
    59  H         -0.02723400       0.18200400       0.49331800
    60  H          0.02723400       0.68200400       0.50668200
    61  H          0.82953900       0.31832200       0.53746500
    62  H          0.17046100       0.81832200       0.46253500
    63  H          0.82268800       0.10795600       0.55552300
    64  H          0.17731200       0.60795600       0.44447700
    65  O          0.83865000       0.16851200       0.80008000
    66  O          0.16135000       0.66851200       0.19992000
    67  O          0.65963000       0.38996000       0.85517000
    68  O          0.34037000       0.88996000       0.14483000
    69  N          0.11413000       0.22797000       0.61067000
    70  N          0.88587000       0.72797000       0.38933000
    71  I          0.37510500       0.17854600       0.39007800
    72  I          0.62489500       0.67854600       0.60992200
