data_CANANP01
_symmetry_space_group_name_H-M    'P1'
_symmetry_Int_Tables_number       1
loop_
_symmetry_equiv_pos_site_id
_symmetry_equiv_pos_as_xyz
1 x,y,z
_cell_length_a                   6.530701
_cell_length_b                   7.840101
_cell_length_c                   15.034211
_cell_angle_alpha                90.0
_cell_angle_beta                 98.5527
_cell_angle_gamma                90.0
loop_
_atom_site_label
_atom_site_type_symbol
_atom_site_fract_x
_atom_site_fract_y
_atom_site_fract_z
     1  Cl         0.76359900       0.61012800       0.65932500
     2  Cl         0.26359900       0.38987200       0.15932500
     3  Cl         0.20492100       0.43287800       0.67265400
     4  Cl         0.70492100       0.56712200       0.17265400
     5  Cl         0.28517110       0.66573800       0.34112500
     6  Cl         0.78517110       0.33426200       0.84112500
     7  Cl         0.84466900       0.84575800       0.32845400
     8  Cl         0.34466900       0.15424200       0.82845400
     9  O          0.38604000       0.47283000       0.51012140
    10  O          0.88604000       0.52717000       0.01012140
    11  O          0.66706000       0.80713000       0.49199140
    12  O          0.16706000       0.19287000      -0.00800860
    13  C          0.91144000       0.62504000       0.57562000
    14  C          0.41144000       0.37496000       0.07562000
    15  C          0.09865000       0.54783000       0.58046190
    16  C          0.59865000       0.45217000       0.08046190
    17  C          0.22265000       0.55264000       0.50602000
    18  C          0.72265000       0.44736000       0.00602000
    19  C          0.13645000       0.65554000       0.42632000
    20  C          0.63645000       0.34446000       0.92632000
    21  C          0.95245000       0.73463000       0.42092000
    22  C          0.45245000       0.26537000       0.92092000
    23  C          0.82705000       0.72864000       0.49610190
    24  C          0.32705000       0.27136000      -0.00389810
    25  N          0.71285000       0.38814000       0.40283190
    26  N          0.21285000       0.61186000       0.90283190
    27  H          0.67320000       0.43160000       0.35120000
    28  H          0.17320000       0.56840000       0.85120000
    29  H          0.62830000       0.37860000       0.44430000
    30  H          0.12830000       0.62140000       0.94430000
    31  N          0.33705000       0.88287000       0.60512000
    32  N          0.83705000       0.11713000       0.10512000
    33  H          0.36870000       0.84960000       0.65920000
    34  H          0.86870000       0.15040000       0.15920000
    35  H          0.44260000       0.88250000       0.57430000
    36  H          0.94260000       0.11750000       0.07430000
    37  C          0.88595000       0.28464000       0.41662000
    38  C          0.38595000       0.71536000       0.91662000
    39  C          0.02155000       0.28234000       0.35442000
    40  C          0.52155000       0.71766000       0.85442000
    41  H         -0.00880000       0.34830000       0.30100000
    42  H          0.49120000       0.65170000       0.80100000
    43  C          0.20186000       0.18494000       0.36842000
    44  C          0.70186000       0.81506000       0.86842000
    45  H          0.29100000       0.18370000       0.32390000
    46  H          0.79100000       0.81630000       0.82390000
    47  C          0.25306000       0.09024000       0.44572000
    48  C          0.75306000       0.90976000       0.94572000
    49  H          0.37890000       0.02770000       0.45540000
    50  H          0.87890000       0.97230000       0.95540000
    51  C          0.11725000       0.08674000       0.51042000
    52  C          0.61725000       0.91326000       0.01042000
    53  C          0.16365000      -0.01284000       0.59152000
    54  C          0.66365000       0.01284000       0.09152000
    55  C          0.02995000      -0.01273000       0.65458190
    56  C          0.52995000       0.01273000       0.15458190
    57  H          0.06230000       0.92210000       0.70810000
    58  H          0.56230000       0.07790000       0.20810000
    59  C          0.84545000       0.08374000       0.64002000
    60  C          0.34545000       0.91626000       0.14002000
    61  H          0.75400000       0.08200000       0.68360000
    62  H          0.25400000       0.91800000       0.18360000
    63  C          0.79695000       0.17964000       0.56372000
    64  C          0.29695000       0.82036000       0.06372000
    65  H          0.67270000       0.24430000       0.55520000
    66  H          0.17270000       0.75570000       0.05520000
    67  C          0.92975000       0.18373000       0.49712000
    68  C          0.42975000       0.81627000      -0.00288000
