data_CANLUY
_symmetry_space_group_name_H-M    'P1'
_symmetry_Int_Tables_number       1
loop_
_symmetry_equiv_pos_site_id
_symmetry_equiv_pos_as_xyz
1 x,y,z
_cell_length_a                   9.4013
_cell_length_b                   10.3174
_cell_length_c                   11.5063
_cell_angle_alpha                100.973
_cell_angle_beta                 109.242
_cell_angle_gamma                82.193
loop_
_atom_site_label
_atom_site_type_symbol
_atom_site_fract_x
_atom_site_fract_y
_atom_site_fract_z
     1  Cl         0.63559000       0.02824000       0.37184000
     2  Cl         0.36441000       0.97176000       0.62816000
     3  S          0.39280000       0.88723000       0.33645000
     4  S          0.60720000       0.11277000       0.66355000
     5  O          0.24422000       0.81318000       0.32535000
     6  O          0.75578000       0.18682000       0.67465000
     7  C          0.34137000       0.58512000       0.28130000
     8  C          0.65863000       0.41488000       0.71870000
     9  C          0.48541000       0.62001000       0.35840000
    10  C          0.51459000       0.37999000       0.64160000
    11  C          0.59598000       0.51913000       0.39931000
    12  C          0.40402000       0.48087000       0.60069000
    13  C          0.56510000       0.38787000       0.36457000
    14  C          0.43490000       0.61213000       0.63543000
    15  C          0.42400000       0.35405000       0.28850000
    16  C          0.57600000       0.64595000       0.71150000
    17  C          0.31283000       0.45203000       0.24694000
    18  C          0.68717000       0.54797000       0.75306000
    19  C          0.06001000       0.67169000       0.19636000
    20  C          0.93999000       0.32831000       0.80364000
    21  C          0.01179000       0.61388000       0.27453000
    22  C         -0.01179000       0.38612000       0.72547000
    23  C          0.85999000       0.60576000       0.25340000
    24  C          0.14001000       0.39424000       0.74660000
    25  C          0.75330000       0.65576000       0.15511000
    26  C          0.24670000       0.34424000       0.84489000
    27  C          0.79974000       0.71406000       0.07686000
    28  C          0.20026000       0.28594000       0.92314000
    29  C          0.95137000       0.72187000       0.09692000
    30  C          0.04863000       0.27813000       0.90308000
    31  C          0.27479000       0.73430000       0.12845000
    32  C          0.72521000       0.26570000       0.87155000
    33  C          0.24598000       0.67287000       0.00552000
    34  C          0.75402000       0.32713000      -0.00552000
    35  C          0.30936000       0.71978000       0.93018000
    36  C          0.69064000       0.28022000       0.06982000
    37  C          0.39982000       0.82474000       0.97542000
    38  C          0.60018000       0.17526000       0.02458000
    39  C          0.43319000       0.88407000       0.09978000
    40  C          0.56681000       0.11593000       0.90022000
    41  C          0.37029000       0.83537000       0.17364000
    42  C          0.62971000       0.16463000       0.82636000
    43  C          0.22499000       0.69334000       0.22803000
    44  C          0.77501000       0.30666000       0.77197000
    45  C          0.53308000       0.75970000       0.40281000
    46  C          0.46692000       0.24030000       0.59719000
    47  H          0.69449000       0.54688000       0.45484000
    48  H          0.30551000       0.45312000       0.54516000
    49  H          0.64298000       0.32403000       0.39173000
    50  H          0.35702000       0.67597000       0.60827000
    51  H          0.39731000       0.26372000       0.26788000
    52  H          0.60269000       0.73628000       0.73212000
    53  H          0.20946000       0.42714000       0.19467000
    54  H          0.79054000       0.57286000       0.80533000
    55  H          0.08343000       0.57822000       0.33722000
    56  H          0.91657000       0.42178000       0.66278000
    57  H          0.82773000       0.56244000       0.29899000
    58  H          0.17227000       0.43756000       0.70101000
    59  H          0.64757000       0.65128000       0.14268000
    60  H          0.35243000       0.34872000       0.85732000
    61  H          0.73109000       0.75101000       0.00996000
    62  H          0.26891000       0.24899000      -0.00996000
    63  H         -0.01696000       0.76299000       0.05229000
    64  H          0.01696000       0.23701000       0.94771000
    65  H          0.18351000       0.60371000       0.97699000
    66  H          0.81649000       0.39629000       0.02301000
    67  H          0.28971000       0.68175000       0.84594000
    68  H          0.71029000       0.31825000       0.15406000
    69  H          0.44201000       0.85761000       0.92791000
    70  H          0.55799000       0.14239000       0.07209000
    71  H          0.49930000       0.94917000       0.13477000
    72  H          0.50070000       0.05083000       0.86523000
    73  H          0.62381000       0.77944000       0.38300000
    74  H          0.37619000       0.22056000       0.61700000
    75  H          0.54679000       0.78813000       0.49008000
    76  H          0.45321000       0.21187000       0.50992000
    77  Cl         0.07700000       0.08622000       0.18999000
    78  Cl         0.92300000       0.91378000       0.81001000
    79  Cl         0.00184000       0.31746000       0.40554000
    80  Cl        -0.00184000       0.68254000       0.59446000
    81  C          0.96859000       0.06724000       0.28506000
    82  C          0.03141000       0.93276000       0.71494000
    83  C          0.01436000       0.14382000       0.40966000
    84  C         -0.01436000       0.85618000       0.59034000
    85  H          0.97716000       0.97075000       0.29505000
    86  H          0.02284000       0.02925000       0.70495000
    87  H          0.85758000       0.08732000       0.24104000
    88  H          0.14242000       0.91268000       0.75896000
    89  H          0.94546000       0.13253000       0.45997000
    90  H          0.05454000       0.86747000       0.54003000
    91  H          0.11196000       0.12705000       0.44391000
    92  H          0.88804000       0.87295000       0.55609000
