data_CAPRES
_symmetry_space_group_name_H-M    'P1'
_symmetry_Int_Tables_number       1
loop_
_symmetry_equiv_pos_site_id
_symmetry_equiv_pos_as_xyz
1 x,y,z
_cell_length_a                   18.9706
_cell_length_b                   11.3032
_cell_length_c                   9.3083
_cell_angle_alpha                90.0
_cell_angle_beta                 90.0
_cell_angle_gamma                101.612
loop_
_atom_site_label
_atom_site_type_symbol
_atom_site_fract_x
_atom_site_fract_y
_atom_site_fract_z
     1  Cl         0.18980000       0.96140000       0.82220000
     2  Cl         0.81020000       0.53860000       0.32220000
     3  Cl         0.81020000       0.03860000       0.17780000
     4  Cl         0.18980000       0.46140000       0.67780000
     5  C          0.29420000       0.80500000       0.19310000
     6  C          0.70580000       0.69500000       0.69310000
     7  C          0.70580000       0.19500000       0.80690000
     8  C          0.29420000       0.30500000       0.30690000
     9  C          0.30660000       0.93030000       0.17390000
    10  C          0.69340000       0.56970000       0.67390000
    11  C          0.69340000       0.06970000       0.82610000
    12  C          0.30660000       0.43030000       0.32610000
    13  C          0.27430000       0.97660000       0.05950000
    14  C          0.72570000       0.52340000       0.55950000
    15  C          0.72570000       0.02340000       0.94050000
    16  C          0.27430000       0.47660000       0.44050000
    17  C          0.22980000       0.90230000       0.96580000
    18  C          0.77020000       0.59770000       0.46580000
    19  C          0.77020000       0.09770000       0.03420000
    20  C          0.22980000       0.40230000       0.53420000
    21  C          0.21560000       0.77510000      -0.01460000
    22  C          0.78440000       0.72490000       0.48540000
    23  C          0.78440000       0.22490000       0.01460000
    24  C          0.21560000       0.27510000       0.51460000
    25  C          0.24810000       0.73070000       0.10090000
    26  C          0.75190000       0.76930000       0.60090000
    27  C          0.75190000       0.26930000       0.89910000
    28  C          0.24810000       0.23070000       0.39910000
    29  H          0.34200000      -0.01000000       0.24600000
    30  H          0.65800000       0.51000000       0.74600000
    31  H          0.65800000       0.01000000       0.75400000
    32  H          0.34200000       0.49000000       0.25400000
    33  H          0.28500000       0.07300000       0.04300000
    34  H          0.71500000       0.42700000       0.54300000
    35  H          0.71500000       0.92700000       0.95700000
    36  H          0.28500000       0.57300000       0.45700000
    37  H          0.23800000       0.63400000       0.11700000
    38  H          0.76200000       0.86600000       0.61700000
    39  H          0.76200000       0.36600000       0.88300000
    40  H          0.23800000       0.13400000       0.38300000
    41  O          0.32430000       0.75450000       0.30150000
    42  O          0.67570000       0.74550000       0.80150000
    43  O          0.67570000       0.24550000       0.69850000
    44  O          0.32430000       0.25450000       0.19850000
    45  O          0.17180000       0.70610000       0.89160000
    46  O          0.82820000       0.79390000       0.39160000
    47  O          0.82820000       0.29390000       0.10840000
    48  O          0.17180000       0.20610000       0.60840000
    49  C          0.48310000       0.93390000       0.83400000
    50  C          0.51690000       0.56610000       0.33400000
    51  C          0.51690000       0.06610000       0.16600000
    52  C          0.48310000       0.43390000       0.66600000
    53  C          0.48620000       0.80570000       0.88430000
    54  C          0.51380000       0.69430000       0.38430000
    55  C          0.51380000       0.19430000       0.11570000
    56  C          0.48620000       0.30570000       0.61570000
    57  C          0.41240000       0.72570000       0.89840000
    58  C          0.58760000       0.77430000       0.39840000
    59  C          0.58760000       0.27430000       0.10160000
    60  C          0.41240000       0.22570000       0.60160000
    61  C          0.37110000       0.70180000       0.76100000
    62  C          0.62890000       0.79820000       0.26100000
    63  C          0.62890000       0.29820000       0.23900000
    64  C          0.37110000       0.20180000       0.73900000
    65  C          0.35140000       0.81350000       0.68780000
    66  C          0.64860000       0.68650000       0.18780000
    67  C          0.64860000       0.18650000       0.31220000
    68  C          0.35140000       0.31350000       0.81220000
    69  C          0.41350000       0.89130000       0.60710000
    70  C          0.58650000       0.60870000       0.10710000
    71  C          0.58650000       0.10870000       0.39290000
    72  C          0.41350000       0.39130000       0.89290000
    73  H          0.53300000      -0.00600000       0.86200000
    74  H          0.46700000       0.50600000       0.36200000
    75  H          0.46700000       0.00600000       0.13800000
    76  H          0.53300000       0.49400000       0.63800000
    77  H          0.30800000       0.78300000       0.61300000
    78  H          0.69200000       0.71700000       0.11300000
    79  H          0.69200000       0.21700000       0.38700000
    80  H          0.30800000       0.28300000       0.88700000
    81  H          0.43900000       0.96300000       0.88800000
    82  H          0.56100000       0.53700000       0.38800000
    83  H          0.56100000       0.03700000       0.11200000
    84  H          0.43900000       0.46300000       0.61200000
    85  H          0.51200000       0.81100000      -0.01200000
    86  H          0.48800000       0.68900000       0.48800000
    87  H          0.48800000       0.18900000       0.01200000
    88  H          0.51200000       0.31100000       0.51200000
    89  H          0.51700000       0.76500000       0.80700000
    90  H          0.48300000       0.73500000       0.30700000
    91  H          0.48300000       0.23500000       0.19300000
    92  H          0.51700000       0.26500000       0.69300000
    93  H          0.38100000       0.76800000       0.97200000
    94  H          0.61900000       0.73200000       0.47200000
    95  H          0.61900000       0.23200000       0.02800000
    96  H          0.38100000       0.26800000       0.52800000
    97  H          0.41900000       0.64000000       0.94200000
    98  H          0.58100000       0.86000000       0.44200000
    99  H          0.58100000       0.36000000       0.05800000
   100  H          0.41900000       0.14000000       0.55800000
   101  H          0.40300000       0.66200000       0.68600000
   102  H          0.59700000       0.83800000       0.18600000
   103  H          0.59700000       0.33800000       0.31400000
   104  H          0.40300000       0.16200000       0.81400000
   105  H          0.32200000       0.63800000       0.78300000
   106  H          0.67800000       0.86200000       0.28300000
   107  H          0.67800000       0.36200000       0.21700000
   108  H          0.32200000       0.13800000       0.71700000
   109  H          0.33300000       0.86800000       0.77000000
   110  H          0.66700000       0.63200000       0.27000000
   111  H          0.66700000       0.13200000       0.23000000
   112  H          0.33300000       0.36800000       0.73000000
   113  N          0.47230000       0.94130000       0.67800000
   114  N          0.52770000       0.55870000       0.17800000
   115  N          0.52770000       0.05870000       0.32200000
   116  N          0.47230000       0.44130000       0.82200000
   117  O          0.40970000       0.90640000       0.47370000
   118  O          0.59030000       0.59360000       0.97370000
   119  O          0.59030000       0.09360000       0.52630000
   120  O          0.40970000       0.40640000       0.02630000
   121  C          0.08550000       0.41120000       0.05540000
   122  C          0.91450000       0.08880000       0.55540000
   123  C          0.91450000       0.58880000       0.94460000
   124  C          0.08550000       0.91120000       0.44460000
   125  C          0.00280000       0.25400000       0.19880000
   126  C         -0.00280000       0.24600000       0.69880000
   127  C         -0.00280000       0.74600000       0.80120000
   128  C          0.00280000       0.75400000       0.30120000
   129  C          0.01670000       0.13770000       0.13320000
   130  C          0.98330000       0.36230000       0.63320000
   131  C          0.98330000       0.86230000       0.86680000
   132  C          0.01670000       0.63770000       0.36680000
   133  C          0.09640000       0.13070000       0.13080000
   134  C          0.90360000       0.36930000       0.63080000
   135  C          0.90360000       0.86930000       0.86920000
   136  C          0.09640000       0.63070000       0.36920000
   137  C          0.14430000       0.22760000       0.03830000
   138  C          0.85570000       0.27240000       0.53830000
   139  C          0.85570000       0.77240000       0.96170000
   140  C          0.14430000       0.72760000       0.46170000
   141  C          0.14890000       0.35740000       0.09420000
   142  C          0.85110000       0.14260000       0.59420000
   143  C          0.85110000       0.64260000       0.90580000
   144  C          0.14890000       0.85740000       0.40580000
   145  H          0.03500000       0.27300000       0.29500000
   146  H          0.96500000       0.22700000       0.79500000
   147  H          0.96500000       0.72700000       0.70500000
   148  H          0.03500000       0.77300000       0.20500000
   149  H          0.94600000       0.24100000       0.22600000
   150  H          0.05400000       0.25900000       0.72600000
   151  H          0.05400000       0.75900000       0.77400000
   152  H          0.94600000       0.74100000       0.27400000
   153  H          0.98800000       0.06300000       0.19500000
   154  H          0.01200000       0.43700000       0.69500000
   155  H          0.01200000       0.93700000       0.80500000
   156  H          0.98800000       0.56300000       0.30500000
   157  H         -0.00300000       0.13100000       0.02400000
   158  H          0.00300000       0.36900000       0.52400000
   159  H          0.00300000       0.86900000       0.97600000
   160  H         -0.00300000       0.63100000       0.47600000
   161  H          0.11600000       0.14000000       0.24000000
   162  H          0.88400000       0.36000000       0.74000000
   163  H          0.88400000       0.86000000       0.76000000
   164  H          0.11600000       0.64000000       0.26000000
   165  H          0.10100000       0.04300000       0.08900000
   166  H          0.89900000       0.45700000       0.58900000
   167  H          0.89900000       0.95700000       0.91100000
   168  H          0.10100000       0.54300000       0.41100000
   169  H          0.19800000       0.20900000       0.03600000
   170  H          0.80200000       0.29100000       0.53600000
   171  H          0.80200000       0.79100000       0.96400000
   172  H          0.19800000       0.70900000       0.46400000
   173  H          0.12300000       0.22200000       0.93000000
   174  H          0.87700000       0.27800000       0.43000000
   175  H          0.87700000       0.77800000       0.07000000
   176  H          0.12300000       0.72200000       0.57000000
   177  H          0.19700000       0.41400000       0.05000000
   178  H          0.80300000       0.08600000       0.55000000
   179  H          0.80300000       0.58600000       0.95000000
   180  H          0.19700000       0.91400000       0.45000000
   181  H          0.15300000       0.35600000       0.21000000
   182  H          0.84700000       0.14400000       0.71000000
   183  H          0.84700000       0.64400000       0.79000000
   184  H          0.15300000       0.85600000       0.29000000
   185  N          0.02080000       0.36000000       0.10080000
   186  N          0.97920000       0.14000000       0.60080000
   187  N          0.97920000       0.64000000       0.89920000
   188  N          0.02080000       0.86000000       0.39920000
   189  O          0.09350000       0.50330000       0.97720000
   190  O          0.90650000      -0.00330000       0.47720000
   191  O          0.90650000       0.49670000       0.02280000
   192  O          0.09350000       0.00330000       0.52280000
