data_CAPSAQ
_symmetry_space_group_name_H-M    'P1'
_symmetry_Int_Tables_number       1
loop_
_symmetry_equiv_pos_site_id
_symmetry_equiv_pos_as_xyz
1 x,y,z
_cell_length_a                   7.568512
_cell_length_b                   17.9913
_cell_length_c                   20.4043
_cell_angle_alpha                72.2005
_cell_angle_beta                 82.2366
_cell_angle_gamma                89.3566
loop_
_atom_site_label
_atom_site_type_symbol
_atom_site_fract_x
_atom_site_fract_y
_atom_site_fract_z
     1  I          0.50348500       0.36554200       0.42977200
     2  I          0.49651500       0.63445800       0.57022800
     3  I          0.62378500       0.91083800       0.68145200
     4  I          0.37621500       0.08916200       0.31854800
     5  F          0.49526000       0.20212000       0.43612000
     6  F          0.50474000       0.79788000       0.56388000
     7  F          0.53015000       0.21532000       0.53582000
     8  F          0.46985000       0.78468000       0.46418000
     9  F          0.19406000       0.26612000       0.55082000
    10  F          0.80594000       0.73388000       0.44918000
    11  F          0.15315000       0.25462000       0.45042000
    12  F          0.84685000       0.74538000       0.54958000
    13  F          0.24676000       0.09602000       0.50353000
    14  F          0.75324000       0.90398000       0.49647000
    15  F          0.24256000       0.11583000       0.60292000
    16  F          0.75744000       0.88417000       0.39708000
    17  F          0.89725000       0.18042000       0.58232000
    18  F          0.10275000       0.81958000       0.41768000
    19  F          0.91415000       0.13682000       0.49372000
    20  F          0.08585000       0.86318000       0.50628000
    21  F         -0.01455000       0.99058000       0.57892000
    22  F          0.01455000       0.00942000       0.42108000
    23  F          0.95055000       0.03572000       0.66737190
    24  F          0.04945000       0.96428000       0.33262810
    25  F          0.61725000       0.08072000       0.64312000
    26  F          0.38275000       0.91928000       0.35688000
    27  F          0.64315000       0.03962000       0.55272000
    28  F          0.35685000       0.96038000       0.44728000
    29  C          0.44229000       0.24234000       0.48084000
    30  C          0.55771000       0.75766000       0.51916000
    31  C          0.24018000       0.22624000       0.50594000
    32  C          0.75982000       0.77376000       0.49406000
    33  C          0.17708000       0.13994000       0.54233000
    34  C          0.82292000       0.86006000       0.45767000
    35  C          0.97022000       0.12624000       0.55563000
    36  C          0.02978000       0.87376000       0.44437000
    37  C          0.90282000       0.04414000       0.60463000
    38  C          0.09718000       0.95586000       0.39537000
    39  C          0.69852000       0.02744000       0.61493000
    40  C          0.30148000       0.97256000       0.38507000
    41  O          0.80496000       0.13803000       0.09412000
    42  O          0.19504000       0.86197000       0.90588000
    43  O          0.03576000       0.59803000       0.80308000
    44  O          0.96424000       0.40197000       0.19692000
    45  O          0.95957000       0.69163000       0.85137000
    46  O          0.04043000       0.30837000       0.14863000
    47  N          0.57327000       0.52193000       0.35823000
    48  N          0.42673000       0.47807000       0.64177000
    49  C          0.53659000       0.65314000       0.36064000
    50  C          0.46341000       0.34686000       0.63936000
    51  H          0.48520000       0.68700000       0.38520000
    52  H          0.51480000       0.31300000       0.61480000
    53  C          0.50969000       0.57344000       0.38974000
    54  C          0.49031000       0.42656000       0.61026000
    55  H          0.44220000       0.55420000       0.43460000
    56  H          0.55780000       0.44580000       0.56540000
    57  C          0.67119000       0.55214000       0.29444000
    58  C          0.32881000       0.44786000       0.70556000
    59  H          0.71930000       0.51680000       0.27080000
    60  H          0.28070000       0.48320000       0.72920000
    61  C          0.70408000       0.63034000       0.26244000
    62  C          0.29592000       0.36966000       0.73756000
    63  H          0.77180000       0.64790000       0.21750000
    64  H          0.22820000       0.35210000       0.78250000
    65  C          0.63788000       0.68454000       0.29574000
    66  C          0.36212000       0.31546000       0.70426000
    67  C          0.66578000       0.76964000       0.26704000
    68  C          0.33422000       0.23036000       0.73296000
    69  H          0.63030000       0.79920000       0.29760000
    70  H          0.36970000       0.20080000       0.70240000
    71  C          0.73578000       0.80974000       0.20203000
    72  C          0.26422000       0.19026000       0.79797000
    73  H          0.77450000       0.78030000       0.17140000
    74  H          0.22550000       0.21970000       0.82860000
    75  C          0.75808000       0.89544000       0.17363000
    76  C          0.24192000       0.10456000       0.82637000
    77  C          0.81328000       0.93094000       0.10293000
    78  C          0.18672000       0.06906000       0.89707000
    79  H          0.83830000       0.89880000       0.07370000
    80  H          0.16170000       0.10120000       0.92630000
    81  C          0.83288000       0.01144000       0.07363000
    82  C          0.16712000       0.98856000       0.92637000
    83  H          0.87120000       0.03390000       0.02530000
    84  H          0.12880000       0.96610000       0.97470000
    85  C          0.79528000       0.05824000       0.11623000
    86  C          0.20472000       0.94176000       0.88377000
    87  C          0.74148000       0.02434000       0.18803000
    88  C          0.25852000       0.97566000       0.81197000
    89  H          0.71770000       0.05660000       0.21720000
    90  H          0.28230000       0.94340000       0.78280000
    91  C          0.72308000       0.94414000       0.21613000
    92  C          0.27692000       0.05586000       0.78387000
    93  H          0.68640000       0.92150000       0.26460000
    94  H          0.31360000       0.07850000       0.73540000
    95  C          0.86518000       0.17854000       0.02263000
    96  C          0.13482000       0.82146000       0.97737000
    97  H          0.78740000       0.16440000       0.99260000
    98  H          0.21260000       0.83560000       0.00740000
    99  H         -0.01130000       0.16420000       0.00960000
   100  H          0.01130000       0.83580000       0.99040000
   101  C          0.85808000       0.26444000       0.01363000
   102  C          0.14192000       0.73556000       0.98637000
   103  H          0.92290000       0.27580000       0.04860000
   104  H          0.07710000       0.72420000       0.95140000
   105  H          0.73200000       0.27790000       0.02300000
   106  H          0.26800000       0.72210000       0.97700000
   107  C          0.92378000       0.40234000       0.93767000
   108  C          0.07622000       0.59766000       0.06233000
   109  H         -0.00860000       0.41180000       0.97280000
   110  H          0.00860000       0.58820000       0.02720000
   111  H          0.79720000       0.41320000       0.95010000
   112  H          0.20280000       0.58680000       0.04990000
   113  C          0.93698000       0.31694000       0.94167000
   114  C          0.06302000       0.68306000       0.05833000
   115  H          0.06360000       0.30450000       0.93170000
   116  H          0.93640000       0.69550000       0.06830000
   117  H          0.87200000       0.30680000       0.90610000
   118  H          0.12800000       0.69320000       0.09390000
   119  C         -0.00582000       0.45994000       0.86617000
   120  C          0.00582000       0.54006000       0.13383000
   121  H          0.12150000       0.45080000       0.85320000
   122  H          0.87850000       0.54920000       0.14680000
   123  H          0.92620000       0.45230000       0.83040000
   124  H          0.07380000       0.54770000       0.16960000
   125  C          0.97289000       0.54234000       0.87016000
   126  C          0.02711000       0.45766000       0.12984000
   127  H          0.84570000       0.55080000       0.88410000
   128  H          0.15430000       0.44920000       0.11590000
   129  H          0.04200000       0.54980000       0.90570000
   130  H          0.95800000       0.45020000       0.09430000
   131  C          0.01968000       0.67294000       0.80106000
   132  C          0.98032000       0.32706000       0.19894000
   133  C          0.08309000       0.73074000       0.73216000
   134  C          0.91691000       0.26926000       0.26784000
   135  C          0.12961000       0.70724000       0.67576000
   136  C          0.87039000       0.29276000       0.32424000
   137  H          0.16560000       0.74470000       0.63180000
   138  H          0.83440000       0.25530000       0.36820000
   139  H          0.12660000       0.65320000       0.68000000
   140  H          0.87340000       0.34680000       0.32000000
   141  C          0.08311100       0.81274000       0.73115000
   142  C          0.91688900       0.18726000       0.26885000
   143  H          0.12690000       0.84640000       0.68420000
   144  H          0.87310000       0.15360000       0.31580000
   145  H          0.16110000       0.81980000       0.76360000
   146  H          0.83890000       0.18020000       0.23640000
   147  H          0.96150000       0.82680000       0.74520000
   148  H          0.03850000       0.17320000       0.25480000
   149  O          0.38056000       0.13823000       0.02192000
   150  O          0.61944000       0.86177000       0.97808000
   151  O          0.12436000       0.67827000       0.30482000
   152  O          0.87564000       0.32173000       0.69518000
   153  O          0.21896000       0.58227000       0.26092000
   154  O          0.78104000       0.41773000       0.73908000
   155  N          0.54437000       0.75703000       0.76077000
   156  N          0.45563000       0.24297000       0.23923000
   157  C          0.42948000       0.64514000       0.85487000
   158  C          0.57052000       0.35486000       0.14513000
   159  H          0.35800000       0.62520000       0.89890000
   160  H          0.64200000       0.37480000       0.10110000
   161  C          0.44968000       0.72474000       0.82297000
   162  C          0.55032000       0.27526000       0.17703000
   163  H          0.39270000       0.75830000       0.84670000
   164  H          0.60730000       0.24170000       0.15330000
   165  C          0.62369000       0.70834000       0.72896000
   166  C          0.37631000       0.29166000       0.27104000
   167  H          0.69110000       0.73010000       0.68450000
   168  H          0.30890000       0.26990000       0.31550000
   169  C          0.61329000       0.62814000       0.75697000
   170  C          0.38671000       0.37186000       0.24303000
   171  H          0.67290000       0.59620000       0.73210000
   172  H          0.32710000       0.40380000       0.26790000
   173  C          0.51388000       0.59404000       0.82237000
   174  C          0.48612000       0.40596000       0.17763000
   175  C          0.50438000       0.50874000       0.85057000
   176  C          0.49562000       0.49126000       0.14943000
   177  H          0.55440000       0.48030000       0.82070000
   178  H          0.44560000       0.51970000       0.17930000
   179  C          0.43118000       0.46704000       0.91497000
   180  C          0.56882000       0.53296000       0.08503000
   181  H          0.38220000       0.49520000       0.94530000
   182  H          0.61780000       0.50480000       0.05470000
   183  C          0.42048000       0.38144000       0.94237000
   184  C          0.57952000       0.61856000       0.05763000
   185  C          0.48218000       0.33224000       0.90327000
   186  C          0.51782000       0.66776000       0.09673000
   187  H          0.53600000       0.35440000       0.85650000
   188  H          0.46400000       0.64560000       0.14350000
   189  C          0.46618000       0.25234000       0.93147000
   190  C          0.53382000       0.74766000       0.06853000
   191  H          0.50830000       0.22020000       0.90380000
   192  H          0.49170000       0.77980000       0.09620000
   193  C          0.38898000       0.21774000       0.00013000
   194  C          0.61102000       0.78226000      -0.00013000
   195  C          0.32538000       0.26484000       0.04003000
   196  C          0.67462000       0.73516000       0.95997000
   197  H          0.27170000       0.24200000       0.08680000
   198  H          0.72830000       0.75800000       0.91320000
   199  C          0.34028000       0.34564000       0.01143000
   200  C          0.65972000       0.65436000       0.98857000
   201  H          0.29530000       0.37750000       0.03900000
   202  H          0.70470000       0.62250000       0.96100000
   203  C          0.31498000       0.09884000       0.09413000
   204  C          0.68502000       0.90116000       0.90587000
   205  H          0.19160000       0.11400000       0.10620000
   206  H          0.80840000       0.88600000       0.89380000
   207  H          0.39190000       0.11180000       0.12480000
   208  H          0.60810000       0.88820000       0.87520000
   209  C          0.31999000       0.01264000       0.10153000
   210  C          0.68001000       0.98736000       0.89847000
   211  H          0.44480000      -0.00090000       0.08950000
   212  H          0.55520000       0.00090000       0.91050000
   213  H          0.24920000       0.00210000       0.06770000
   214  H          0.75080000      -0.00210000       0.93230000
   215  C          0.24848000       0.95956000       0.17383000
   216  C          0.75152000       0.04044000       0.82617000
   217  H          0.12350000       0.97260000       0.18640000
   218  H          0.87650000       0.02740000       0.81360000
   219  H          0.31990000       0.96870000       0.20800000
   220  H          0.68010000       0.03130000       0.79200000
   221  C          0.25578000       0.87386000       0.17713000
   222  C          0.74422000       0.12614000       0.82287000
   223  H          0.18550000       0.86640000       0.14190000
   224  H          0.81450000       0.13360000       0.85810000
   225  H          0.38120000       0.86260000       0.16320000
   226  H          0.61880000       0.13740000       0.83680000
   227  C          0.19008000       0.81436000       0.24523000
   228  C          0.80992000       0.18564000       0.75477000
   229  H          0.26320000       0.81890000       0.28060000
   230  H          0.73680000       0.18110000       0.71940000
   231  H          0.06510000       0.82510000       0.26040000
   232  H          0.93490000       0.17490000       0.73960000
   233  C          0.19849000       0.73386000       0.24053000
   234  C          0.80151000       0.26614000       0.75947000
   235  H          0.13170000       0.73020000       0.20300000
   236  H          0.86830000       0.26980000       0.79700000
   237  H          0.32420000       0.72170000       0.22840000
   238  H          0.67580000       0.27830000       0.77160000
   239  C          0.13889000       0.60236000       0.30803000
   240  C          0.86111000       0.39764000       0.69197000
   241  C          0.04229000       0.54756000       0.37314000
   242  C          0.95771000       0.45244000       0.62686000
   243  C          0.95421000       0.57676000       0.42283000
   244  C          0.04579000       0.42324000       0.57717000
   245  H          0.88890000       0.54240000       0.46370000
   246  H          0.11110000       0.45760000       0.53630000
   247  H          0.95890000       0.63130000       0.41640000
   248  H          0.04110000       0.36870000       0.58360000
   249  C          0.04431000       0.46636000       0.37744000
   250  C          0.95569000       0.53364000       0.62256000
   251  H          0.96700000       0.43610000       0.41940000
   252  H          0.03300000       0.56390000       0.58060000
   253  H          0.16650000       0.44810000       0.37930000
   254  H          0.83350000       0.55190000       0.62070000
   255  H          0.00090000       0.45960000       0.33640000
   256  H         -0.00090000       0.54040000       0.66360000
