data_CAQQOE
_symmetry_space_group_name_H-M    'P1'
_symmetry_Int_Tables_number       1
loop_
_symmetry_equiv_pos_site_id
_symmetry_equiv_pos_as_xyz
1 x,y,z
_cell_length_a                   9.7892
_cell_length_b                   10.9492
_cell_length_c                   12.9743
_cell_angle_alpha                67.0419
_cell_angle_beta                 86.4471
_cell_angle_gamma                76.0899
loop_
_atom_site_label
_atom_site_type_symbol
_atom_site_fract_x
_atom_site_fract_y
_atom_site_fract_z
     1  C          0.24463000       0.11233000       0.68802000
     2  C          0.75537000       0.88767000       0.31198000
     3  C          0.18644000       0.09893000       0.79083000
     4  C          0.81356000       0.90107000       0.20917000
     5  H          0.21644600       0.13997500       0.83497800
     6  H          0.78355400       0.86002500       0.16502200
     7  C          0.08444000       0.02524000       0.82853000
     8  C          0.91556000       0.97476000       0.17147000
     9  H          0.04323000       0.01704700       0.89842400
    10  H          0.95677000       0.98295300       0.10157600
    11  C          0.04194000       0.96366000       0.76633000
    12  C          0.95806000       0.03634000       0.23367000
    13  H          0.97212300       0.91264700       0.79337400
    14  H          0.02787700       0.08735300       0.20662600
    15  C          0.09994000       0.97596000       0.66543000
    16  C          0.90006000       0.02404000       0.33457000
    17  H          0.07037000       0.93315400       0.62248800
    18  H          0.92963000       0.06684600       0.37751200
    19  C          0.20124000       0.05013000       0.62493000
    20  C          0.79876000       0.94987000       0.37507000
    21  H          0.24088800       0.05856800       0.55441500
    22  H          0.75911200       0.94143200       0.44558500
    23  C          0.46983000       0.20693000       0.74832000
    24  C          0.53017000       0.79307000       0.25168000
    25  C          0.47203000       0.31643000       0.77533000
    26  C          0.52797000       0.68357000       0.22467000
    27  H          0.41702500       0.40463900       0.73213500
    28  H          0.58297500       0.59536100       0.26786500
    29  C          0.55484000       0.29714000       0.86593000
    30  C          0.44516000       0.70286000       0.13407000
    31  H          0.55537000       0.37245900       0.88492300
    32  H          0.44463000       0.62754100       0.11507700
    33  C          0.63514000       0.17184000       0.92773000
    34  C          0.36486000       0.82816000       0.07227000
    35  H          0.68915700       0.15933600      -0.00909800
    36  H          0.31084300       0.84066400       0.00909800
    37  C          0.63814000       0.06324000       0.89893000
    38  C          0.36186000       0.93676000       0.10107000
    39  H          0.69756500       0.97641400       0.93996900
    40  H          0.30243500       0.02358600       0.06003100
    41  C          0.55464000       0.08013000       0.81013000
    42  C          0.44536000       0.91987000       0.18987000
    43  H          0.55534900       0.00438700       0.79124200
    44  H          0.44465100      -0.00438700       0.20875800
    45  C          0.26993000       0.39033000       0.55862000
    46  C          0.73007000       0.60967000       0.44138000
    47  C          0.17503000       0.45613000       0.61523000
    48  C          0.82497000       0.54387000       0.38477000
    49  H          0.16403800       0.41136100       0.69324800
    50  H          0.83596200       0.58863900       0.30675200
    51  C          0.09643000       0.58743000       0.55733000
    52  C          0.90357000       0.41257000       0.44267000
    53  H          0.03222900       0.63306800       0.59599200
    54  H          0.96777100       0.36693200       0.40400800
    55  C          0.11104000       0.65133000       0.44473000
    56  C          0.88896000       0.34867000       0.55527000
    57  H          0.05714800       0.74150200       0.40544900
    58  H          0.94285200       0.25849800       0.59455100
    59  C          0.20254000       0.58614000       0.38853000
    60  C          0.79746000       0.41386000       0.61147000
    61  H          0.21140600       0.63116100       0.31019300
    62  H          0.78859400       0.36883900       0.68980700
    63  C          0.28244000       0.45543000       0.44423000
    64  C          0.71756000       0.54457000       0.55577000
    65  H          0.34535100       0.41043600       0.40435300
    66  H          0.65464900       0.58956400       0.59564700
    67  C          0.48403000       0.15763000       0.54233000
    68  C          0.51597000       0.84237000       0.45767000
    69  H          0.51784300       0.05732200       0.57932800
    70  H          0.48215700       0.94267800       0.42067200
    71  H          0.43108600       0.17767800       0.47266800
    72  H          0.56891400       0.82232200       0.52733200
    73  C          0.61074000       0.22164000       0.51173000
    74  C          0.38926000       0.77836000       0.48827000
    75  H          0.57848000       0.32110300       0.48468300
    76  H          0.42152000       0.67889700       0.51531700
    77  H          0.66195100       0.19654300       0.45279800
    78  H          0.33804900       0.80345700       0.54720200
    79  H          0.67324300       0.18813100       0.57802600
    80  H          0.32675700       0.81186900       0.42197400
    81  P          0.36709800       0.21816700       0.63313600
    82  P          0.63290200       0.78183300       0.36686400
    83  C          0.34384000       0.61373000       0.85863000
    84  C          0.65616000       0.38627000       0.14137000
    85  C          0.25604000       0.55103000       0.88173000
    86  C          0.74396000       0.44897000       0.11827000
    87  C          0.15153000       0.47293000       0.90043000
    88  C          0.84847000       0.52707000       0.09957000
    89  C          0.01684000       0.53284000       0.85313000
    90  C          0.98316000       0.46716000       0.14687000
    91  H         -0.01019100       0.62797700       0.80936600
    92  H          0.01019100       0.37202300       0.19063400
    93  C          0.92376000       0.45294000       0.87043000
    94  C          0.07624000       0.54706000       0.12957000
    95  H          0.83079700       0.49171100       0.83866600
    96  H          0.16920300       0.50828900       0.16133400
    97  C          0.96536000       0.31594000       0.93403000
    98  C          0.03464000       0.68406000       0.06597000
    99  H          0.89923600       0.26156300       0.94487900
   100  H          0.10076400       0.73843700       0.05512100
   101  C          0.18324000       0.33363000       0.96473000
   102  C          0.81676000       0.66637000       0.03527000
   103  H          0.27493100       0.29245500      -0.00137300
   104  H          0.72506900       0.70754500       0.00137300
   105  I          0.50442200       0.70664200       0.80145200
   106  I          0.49557800       0.29335800       0.19854800
   107  N          0.09413000       0.25473000       0.98163000
   108  N          0.90587000       0.74527000       0.01837000
   109  Br         0.75614400       0.83253300       0.68391300
   110  Br         0.24385600       0.16746700       0.31608700
