data_CAQQUK
_symmetry_space_group_name_H-M    'P1'
_symmetry_Int_Tables_number       1
loop_
_symmetry_equiv_pos_site_id
_symmetry_equiv_pos_as_xyz
1 x,y,z
_cell_length_a                   15.291812
_cell_length_b                   15.291812
_cell_length_c                   7.59196
_cell_angle_alpha                90.0
_cell_angle_beta                 90.0
_cell_angle_gamma                90.0
loop_
_atom_site_label
_atom_site_type_symbol
_atom_site_fract_x
_atom_site_fract_y
_atom_site_fract_z
     1  C          0.51393000       0.59233000       0.36069000
     2  C          0.48607000       0.40767000       0.36069000
     3  C          0.59233000       0.48607000       0.63931000
     4  C          0.40767000       0.51393000       0.63931000
     5  C          0.98607000       0.09233000       0.63931000
     6  C          0.01393000       0.90767000       0.63931000
     7  C          0.90767000       0.98607000       0.36069000
     8  C          0.09233000       0.01393000       0.36069000
     9  C          0.46964000       0.67054000       0.38911000
    10  C          0.53036000       0.32946000       0.38911000
    11  C          0.67054000       0.53036000       0.61089000
    12  C          0.32946000       0.46964000       0.61089000
    13  C          0.03036000       0.17054000       0.61089000
    14  C          0.96964000       0.82946000       0.61089000
    15  C          0.82946000       0.03036000       0.38911000
    16  C          0.17054000       0.96964000       0.38911000
    17  H          0.42960200       0.67552700       0.48424900
    18  H          0.57039800       0.32447300       0.48424900
    19  H          0.67552700       0.57039800       0.51575100
    20  H          0.32447300       0.42960200       0.51575100
    21  H          0.07039800       0.17552700       0.51575100
    22  H          0.92960200       0.82447300       0.51575100
    23  H          0.82447300       0.07039800       0.48424900
    24  H          0.17552700       0.92960200       0.48424900
    25  C          0.48395000       0.74075000       0.27921100
    26  C          0.51605000       0.25925000       0.27921100
    27  C          0.74075000       0.51605000       0.72078900
    28  C          0.25925000       0.48395000       0.72078900
    29  C          0.01605000       0.24075000       0.72078900
    30  C          0.98395000       0.75925000       0.72078900
    31  C          0.75925000       0.01605000       0.27921100
    32  C          0.24075000       0.98395000       0.27921100
    33  H          0.45276900       0.79376800       0.29667900
    34  H          0.54723100       0.20623200       0.29667900
    35  H          0.79376800       0.54723100       0.70332100
    36  H          0.20623200       0.45276900       0.70332100
    37  H          0.04723100       0.29376800       0.70332100
    38  H          0.95276900       0.70623200       0.70332100
    39  H          0.70623200       0.04723100       0.29667900
    40  H          0.29376800       0.95276900       0.29667900
    41  C          0.54335000       0.73375000       0.14381100
    42  C          0.45665000       0.26625000       0.14381100
    43  C          0.73375000       0.45665000       0.85618900
    44  C          0.26625000       0.54335000       0.85618900
    45  C          0.95665000       0.23375000       0.85618900
    46  C          0.04335000       0.76625000       0.85618900
    47  C          0.76625000       0.95665000       0.14381100
    48  C          0.23375000       0.04335000       0.14381100
    49  H          0.55360800       0.78292500       0.07029800
    50  H          0.44639200       0.21707500       0.07029800
    51  H          0.78292500       0.44639200       0.92970200
    52  H          0.21707500       0.55360800       0.92970200
    53  H          0.94639200       0.28292500       0.92970200
    54  H          0.05360800       0.71707500       0.92970200
    55  H          0.71707500       0.94639200       0.07029800
    56  H          0.28292500       0.05360800       0.07029800
    57  C          0.58795000       0.65795000       0.11241000
    58  C          0.41205000       0.34205000       0.11241000
    59  C          0.65795000       0.41205000       0.88759000
    60  C          0.34205000       0.58795000       0.88759000
    61  C          0.91205000       0.15795000       0.88759000
    62  C          0.08795000       0.84205000       0.88759000
    63  C          0.84205000       0.91205000       0.11241000
    64  C          0.15795000       0.08795000       0.11241000
    65  H          0.62834900       0.65413300       0.01769300
    66  H          0.37165100       0.34586700       0.01769300
    67  H          0.65413300       0.37165100      -0.01769300
    68  H          0.34586700       0.62834900      -0.01769300
    69  H          0.87165100       0.15413300      -0.01769300
    70  H          0.12834900       0.84586700      -0.01769300
    71  H          0.84586700       0.87165100       0.01769300
    72  H          0.15413300       0.12834900       0.01769300
    73  C          0.57314000       0.58655000       0.22138000
    74  C          0.42686000       0.41345000       0.22138000
    75  C          0.58655000       0.42686000       0.77862000
    76  C          0.41345000       0.57314000       0.77862000
    77  C          0.92686000       0.08655000       0.77862000
    78  C          0.07314000       0.91345000       0.77862000
    79  C          0.91345000       0.92686000       0.22138000
    80  C          0.08655000       0.07314000       0.22138000
    81  H          0.60348100       0.53326400       0.20083000
    82  H          0.39651900       0.46673600       0.20083000
    83  H          0.53326400       0.39651900       0.79917000
    84  H          0.46673600       0.60348100       0.79917000
    85  H          0.89651900       0.03326400       0.79917000
    86  H          0.10348100       0.96673600       0.79917000
    87  H          0.96673600       0.89651900       0.20083000
    88  H          0.03326400       0.10348100       0.20083000
    89  P          0.50000000       0.50000000       0.50000000
    90  P         -0.00000000      -0.00000000       0.50000000
    91  C          0.81495000       0.68515000       0.30771400
    92  C          0.18505000       0.31485000       0.30771400
    93  C          0.68515000       0.18505000       0.69228600
    94  C          0.31485000       0.81495000       0.69228600
    95  C          0.77425000       0.72585000       0.41081300
    96  C          0.22575000       0.27415000       0.41081300
    97  C          0.72585000       0.22575000       0.58918700
    98  C          0.27415000       0.77425000       0.58918700
    99  C          0.73206000       0.76806000       0.70981400
   100  C          0.26794000       0.23194000       0.70981400
   101  C          0.76806000       0.26794000       0.29018600
   102  C          0.23194000       0.73206000       0.29018600
   103  H          0.77335400       0.72664600       0.75179600
   104  H          0.22664600       0.27335400       0.75179600
   105  H          0.72664600       0.22664600       0.24820400
   106  H          0.27335400       0.77335400       0.24820400
   107  C          0.72295000       0.77715000       0.52981300
   108  C          0.27705000       0.22285000       0.52981300
   109  C          0.77715000       0.27705000       0.47018700
   110  C          0.22285000       0.72295000       0.47018700
   111  C          0.66235000       0.83775000       0.46781500
   112  C          0.33765000       0.16225000       0.46781500
   113  C          0.83775000       0.33765000       0.53218500
   114  C          0.16225000       0.66235000       0.53218500
   115  H          0.65363700       0.84636300       0.34516100
   116  H          0.34636300       0.15363700       0.34516100
   117  H          0.84636300       0.34636300       0.65483900
   118  H          0.15363700       0.65363700       0.65483900
   119  C          0.61575000       0.88435000       0.58961300
   120  C          0.38425000       0.11565000       0.58961300
   121  C          0.88435000       0.38425000       0.41038700
   122  C          0.11565000       0.61575000       0.41038700
   123  H          0.57381100       0.92618900       0.55203900
   124  H          0.42618900       0.07381100       0.55203900
   125  H          0.92618900       0.42618900       0.44796100
   126  H          0.07381100       0.57381100       0.44796100
   127  C          0.62936000       0.87076000       0.76381400
   128  C          0.37064000       0.12924000       0.76381400
   129  C          0.87076000       0.37064000       0.23618600
   130  C          0.12924000       0.62936000       0.23618600
   131  H          0.59590300       0.90409700       0.84497200
   132  H          0.40409700       0.09590300       0.84497200
   133  H          0.90409700       0.40409700       0.15502800
   134  H          0.09590300       0.59590300       0.15502800
   135  I          0.88405300       0.61595300       0.12705800
   136  I          0.11594700       0.38404700       0.12705800
   137  I          0.61595300       0.11594700       0.87294200
   138  I          0.38404700       0.88405300       0.87294200
   139  N          0.68674000       0.81334000       0.82851200
   140  N          0.31326000       0.18666000       0.82851200
   141  N          0.81334000       0.31326000       0.17148800
   142  N          0.18666000       0.68674000       0.17148800
   143  Br        -0.00000000       0.50000000       0.84602170
   144  Br         0.50000000       0.00000000       0.15397830
