data_CARTUM
_symmetry_space_group_name_H-M    'P1'
_symmetry_Int_Tables_number       1
loop_
_symmetry_equiv_pos_site_id
_symmetry_equiv_pos_as_xyz
1 x,y,z
_cell_length_a                   7.1783
_cell_length_b                   14.0357
_cell_length_c                   14.2547
_cell_angle_alpha                101.2763
_cell_angle_beta                 92.0497
_cell_angle_gamma                103.4446
loop_
_atom_site_label
_atom_site_type_symbol
_atom_site_fract_x
_atom_site_fract_y
_atom_site_fract_z
     1  H          0.47760000       0.81580000       0.23301800
     2  H          0.52240000       0.18420000       0.76698200
     3  Cl         0.04238700       0.62622300       0.38147400
     4  Cl         0.95761300       0.37377700       0.61852600
     5  Cl         0.65008400       0.47856300       0.41104400
     6  Cl         0.34991600       0.52143700       0.58895600
     7  S          0.59903300       0.73477700       0.38462400
     8  S          0.40096700       0.26522300       0.61537600
     9  Cl         0.46870300       0.19074300       0.17218300
    10  Cl         0.53129700       0.80925700       0.82781700
    11  N          0.67018000       0.94163890       0.42805100
    12  N          0.32982000       0.05836110       0.57194900
    13  O          0.65178830       0.27237900       0.36690900
    14  O          0.34821170       0.72762100       0.63309100
    15  N          0.52208000       0.86324890       0.28253110
    16  N          0.47792000       0.13675110       0.71746890
    17  C          0.01833000       0.49817130       0.36078130
    18  C         -0.01833000       0.50182870       0.63921870
    19  C          0.59968000       0.85397870       0.36781120
    20  C          0.40032000       0.14602130       0.63218880
    21  C          0.48658000       0.01558130       0.22075120
    22  C          0.51342000       0.98441870       0.77924880
    23  H          0.42350000       0.98190000       0.15940000
    24  H          0.57650000       0.01810000       0.84060000
    25  C          0.84478000       0.43373130       0.37285120
    26  C          0.15522000       0.56626870       0.62714880
    27  C          0.82758000       0.33059120       0.35313110
    28  C          0.17242000       0.66940880       0.64686890
    29  C          0.63378000       0.01282120       0.37788120
    30  C          0.36622000       0.98717880       0.62211880
    31  C          0.67498000       0.11682130       0.40600120
    32  C          0.32502000       0.88317870       0.59399880
    33  H          0.73610000       0.15060000       0.46770000
    34  H          0.26390000       0.84940000       0.53230000
    35  C          0.54048000       0.96392880       0.28685120
    36  C          0.45952000       0.03607120       0.71314880
    37  C          0.52998000       0.11895130       0.24949120
    38  C          0.47002000       0.88104870       0.75050880
    39  C          0.62318000       0.16881130       0.34025120
    40  C          0.37682000       0.83118870       0.65974880
    41  C         -0.01773000       0.29262130       0.32238130
    42  C          0.01773000       0.70737870       0.67761870
    43  H          0.97070000       0.22240000       0.30880000
    44  H          0.02930000       0.77760000       0.69120000
    45  C          0.17323000       0.46045140       0.33063130
    46  C          0.82677000       0.53954860       0.66936870
    47  H          0.29140000       0.50460000       0.32310000
    48  H          0.70860000       0.49540000       0.67690000
    49  C          0.73187000       0.76082860       0.49996130
    50  C          0.26813000       0.23917140       0.50003870
    51  H          0.86110000       0.80220000       0.49720000
    52  H          0.13890000       0.19780000       0.50280000
    53  H          0.74150000       0.69770000       0.51700000
    54  H          0.25850000       0.30230000       0.48300000
    55  H          0.66530000       0.79680000       0.54850000
    56  H          0.33470000       0.20320000       0.45150000
    57  C          0.15453000       0.35810140       0.31162140
    58  C          0.84547000       0.64189860       0.68837860
    59  H          0.26060000       0.33210000       0.29090000
    60  H          0.73940000       0.66790000       0.70910000
    61  H          0.20940000       0.02520000       0.45220000
    62  H          0.79060000       0.97480000       0.54780000
    63  O          0.15109190       0.01566900       0.39627900
    64  O          0.84890810       0.98433100       0.60372100
    65  O          0.12642000       0.85140900       0.38664900
    66  O          0.87358000       0.14859100       0.61335100
    67  C          0.10142000       0.92107870       0.35314120
    68  C          0.89858000       0.07892130       0.64685880
    69  O          0.92728000       0.13220100       0.12564100
    70  O          0.07272000       0.86779900       0.87435900
    71  N          0.85268000       0.04632120       0.08190110
    72  N          0.14732000       0.95367880       0.91809890
    73  O          0.80597000       0.61816890       0.09088120
    74  O          0.19403000       0.38183110       0.90911880
    75  O          0.70357000       0.67443880       0.97258890
    76  O          0.29643000       0.32556120       0.02741110
    77  C          0.00632000       0.90393870       0.25320120
    78  C         -0.00632000       0.09606130       0.74679880
    79  N          0.78147000       0.68615870       0.05341120
    80  N          0.21853000       0.31384130       0.94658880
    81  C         -0.02092000       0.98395870       0.21438120
    82  C          0.02092000       0.01604130       0.78561880
    83  H          0.02420000       0.05110000       0.24920000
    84  H         -0.02420000       0.94890000       0.75080000
    85  O          0.75458000       0.02682120       0.00543110
    86  O          0.24542000       0.97317880      -0.00543110
    87  C          0.94277000       0.80562870       0.20056130
    88  C          0.05723000       0.19437130       0.79943870
    89  H          0.96300000       0.75100000       0.22640000
    90  H          0.03700000       0.24900000       0.77360000
    91  C          0.81657000       0.86664860       0.06942130
    92  C          0.18343000       0.13335140       0.93057870
    93  H          0.75040000       0.85410000       0.00770000
    94  H          0.24960000       0.14590000      -0.00770000
    95  C          0.84997000       0.78956860       0.10992130
    96  C          0.15003000       0.21043140       0.89007870
    97  C          0.88437000       0.96286870       0.12344120
    98  C          0.11563000       0.03713130       0.87655880
    99  H          0.16440000       0.75720000       0.94820000
   100  H          0.83560000       0.24280000       0.05180000
   101  O          0.16762000       0.71208120       0.97483110
   102  O          0.83238000       0.28791880       0.02516890
   103  C          0.13744000       0.62091180       0.90528170
   104  C          0.86256000       0.37908820       0.09471830
   105  H          0.24620000       0.62390000       0.86540000
   106  H          0.75380000       0.37610000       0.13460000
   107  H          0.01870000       0.61130000       0.86470000
   108  H         -0.01870000       0.38870000       0.13530000
   109  H          0.12670000       0.56480000       0.93790000
   110  H          0.87330000       0.43520000       0.06210000
   111  H          0.33440000       0.71420000       0.08020000
   112  H          0.66560000       0.28580000       0.91980000
   113  O          0.39422000       0.70771110       0.12847110
   114  O          0.60578000       0.29228890       0.87152890
   115  C          0.33334000       0.60688180       0.13987190
   116  C          0.66666000       0.39311820       0.86012810
   117  H          0.41450000       0.59660000       0.19190000
   118  H          0.58550000       0.40340000       0.80810000
   119  H          0.34440000       0.56120000       0.08000000
   120  H          0.65560000       0.43880000       0.92000000
   121  H          0.19920000       0.59340000       0.15560000
   122  H          0.80080000       0.40660000       0.84440000
