data_CASNAO
_symmetry_space_group_name_H-M    'P1'
_symmetry_Int_Tables_number       1
loop_
_symmetry_equiv_pos_site_id
_symmetry_equiv_pos_as_xyz
1 x,y,z
_cell_length_a                   10.92875
_cell_length_b                   10.92875
_cell_length_c                   27.450314
_cell_angle_alpha                90.0
_cell_angle_beta                 90.0
_cell_angle_gamma                120.0
loop_
_atom_site_label
_atom_site_type_symbol
_atom_site_fract_x
_atom_site_fract_y
_atom_site_fract_z
     1  P         -0.00000000      -0.00000000       0.05830200
     2  P          0.66666667       0.33333333       0.39163533
     3  P          0.33333333       0.66666667       0.72496867
     4  P         -0.00000000      -0.00000000       0.94169800
     5  P          0.33333333       0.66666667       0.60836467
     6  P          0.66666667       0.33333333       0.27503133
     7  C          0.00000000       0.00000000      -0.00000000
     8  C          0.66666667       0.33333333       0.33333333
     9  C          0.33333333       0.66666667       0.66666667
    10  C          0.05220110       0.87979900       0.08501400
    11  C          0.12020100       0.17240210       0.08501400
    12  C          0.82759790       0.94779890       0.08501400
    13  C          0.71886777       0.21313233       0.41834733
    14  C          0.78686767       0.50573543       0.41834733
    15  C          0.49426457       0.28113223       0.41834733
    16  C          0.38553443       0.54646567       0.75168067
    17  C          0.45353433       0.83906877       0.75168067
    18  C          0.16093123       0.61446557       0.75168067
    19  C          0.94779890       0.12020100       0.91498600
    20  C          0.87979900       0.82759790       0.91498600
    21  C          0.17240210       0.05220110       0.91498600
    22  C          0.28113223       0.78686767       0.58165267
    23  C          0.21313233       0.49426457       0.58165267
    24  C          0.50573543       0.71886777       0.58165267
    25  C          0.61446557       0.45353433       0.24831933
    26  C          0.54646567       0.16093123       0.24831933
    27  C          0.83906877       0.38553443       0.24831933
    28  C          0.00568110       0.81342890       0.13028400
    29  C          0.18657110       0.19225220       0.13028400
    30  C          0.80774780      -0.00568110       0.13028400
    31  C          0.67234777       0.14676223       0.46361733
    32  C          0.85323777       0.52558553       0.46361733
    33  C          0.47441447       0.32765223       0.46361733
    34  C          0.33901443       0.48009557       0.79695067
    35  C          0.51990443       0.85891887       0.79695067
    36  C          0.14108113       0.66098557       0.79695067
    37  C         -0.00568110       0.18657110       0.86971600
    38  C          0.81342890       0.80774780       0.86971600
    39  C          0.19225220       0.00568110       0.86971600
    40  C          0.32765223       0.85323777       0.53638267
    41  C          0.14676223       0.47441447       0.53638267
    42  C          0.52558553       0.67234777       0.53638267
    43  C          0.66098557       0.51990443       0.20304933
    44  C          0.48009557       0.14108113       0.20304933
    45  C          0.85891887       0.33901443       0.20304933
    46  H          0.94810000       0.83500000       0.15030000
    47  H          0.16500000       0.11310000       0.15030000
    48  H          0.88690000       0.05190000       0.15030000
    49  H          0.61476667       0.16833333       0.48363333
    50  H          0.83166667       0.44643333       0.48363333
    51  H          0.55356667       0.38523333       0.48363333
    52  H          0.28143333       0.50166667       0.81696667
    53  H          0.49833333       0.77976667       0.81696667
    54  H          0.22023333       0.71856667       0.81696667
    55  H          0.05190000       0.16500000       0.84970000
    56  H          0.83500000       0.88690000       0.84970000
    57  H          0.11310000       0.94810000       0.84970000
    58  H          0.38523333       0.83166667       0.51636667
    59  H          0.16833333       0.55356667       0.51636667
    60  H          0.44643333       0.61476667       0.51636667
    61  H          0.71856667       0.49833333       0.18303333
    62  H          0.50166667       0.22023333       0.18303333
    63  H          0.77976667       0.28143333       0.18303333
    64  C          0.04383120       0.71575890       0.14592400
    65  C          0.28424110       0.32807230       0.14592400
    66  C          0.67192770       0.95616880       0.14592400
    67  C          0.71049787       0.04909223       0.47925733
    68  C          0.95090777       0.66140563       0.47925733
    69  C          0.33859437       0.28950213       0.47925733
    70  C          0.37716453       0.38242557       0.81259067
    71  C          0.61757443      -0.00526103       0.81259067
    72  C          0.00526103       0.62283547       0.81259067
    73  C          0.95616880       0.28424110       0.85407600
    74  C          0.71575890       0.67192770       0.85407600
    75  C          0.32807230       0.04383120       0.85407600
    76  C          0.28950213       0.95090777       0.52074267
    77  C          0.04909223       0.33859437       0.52074267
    78  C          0.66140563       0.71049787       0.52074267
    79  C          0.62283547       0.61757443       0.18740933
    80  C          0.38242557       0.00526103       0.18740933
    81  C         -0.00526103       0.37716453       0.18740933
    82  H          0.01140000       0.67010000       0.17650000
    83  H          0.32990000       0.34130000       0.17650000
    84  H          0.65870000      -0.01140000       0.17650000
    85  H          0.67806667       0.00343333       0.50983333
    86  H         -0.00343333       0.67463333       0.50983333
    87  H          0.32536667       0.32193333       0.50983333
    88  H          0.34473333       0.33676667       0.84316667
    89  H          0.66323333       0.00796667       0.84316667
    90  H         -0.00796667       0.65526667       0.84316667
    91  H         -0.01140000       0.32990000       0.82350000
    92  H          0.67010000       0.65870000       0.82350000
    93  H          0.34130000       0.01140000       0.82350000
    94  H          0.32193333      -0.00343333       0.49016667
    95  H          0.00343333       0.32536667       0.49016667
    96  H          0.67463333       0.67806667       0.49016667
    97  H          0.65526667       0.66323333       0.15683333
    98  H          0.33676667      -0.00796667       0.15683333
    99  H          0.00796667       0.34473333       0.15683333
   100  C          0.12892120       0.68497880       0.11698400
   101  C          0.31502120       0.44394240       0.11698400
   102  C          0.55605760       0.87107880       0.11698400
   103  C          0.79558787       0.01831213       0.45031733
   104  C         -0.01831213       0.77727573       0.45031733
   105  C          0.22272427       0.20441213       0.45031733
   106  C          0.46225453       0.35164547       0.78365067
   107  C          0.64835453       0.11060907       0.78365067
   108  C          0.88939093       0.53774547       0.78365067
   109  C          0.87107880       0.31502120       0.88301600
   110  C          0.68497880       0.55605760       0.88301600
   111  C          0.44394240       0.12892120       0.88301600
   112  C          0.20441213       0.98168787       0.54968267
   113  C          0.01831213       0.22272427       0.54968267
   114  C          0.77727573       0.79558787       0.54968267
   115  C          0.53774547       0.64835453       0.21634933
   116  C          0.35164547       0.88939093       0.21634933
   117  C          0.11060907       0.46225453       0.21634933
   118  H          0.15440000       0.61810000       0.12770000
   119  H          0.38190000       0.53630000       0.12770000
   120  H          0.46370000       0.84560000       0.12770000
   121  H          0.82106667       0.95143333       0.46103333
   122  H          0.04856667       0.86963333       0.46103333
   123  H          0.13036667       0.17893333       0.46103333
   124  H          0.48773333       0.28476667       0.79436667
   125  H          0.71523333       0.20296667       0.79436667
   126  H          0.79703333       0.51226667       0.79436667
   127  H          0.84560000       0.38190000       0.87230000
   128  H          0.61810000       0.46370000       0.87230000
   129  H          0.53630000       0.15440000       0.87230000
   130  H          0.17893333       0.04856667       0.53896667
   131  H          0.95143333       0.13036667       0.53896667
   132  H          0.86963333       0.82106667       0.53896667
   133  H          0.51226667       0.71523333       0.20563333
   134  H          0.28476667       0.79703333       0.20563333
   135  H          0.20296667       0.48773333       0.20563333
   136  C          0.17700120       0.75154870       0.07239400
   137  C          0.24845130       0.42545250       0.07239400
   138  C          0.57454750       0.82299880       0.07239400
   139  C          0.84366787       0.08488203       0.40572733
   140  C          0.91511797       0.75878583       0.40572733
   141  C          0.24121417       0.15633213       0.40572733
   142  C          0.51033453       0.41821537       0.73906067
   143  C          0.58178463       0.09211917       0.73906067
   144  C          0.90788083       0.48966547       0.73906067
   145  C          0.82299880       0.24845130       0.92760600
   146  C          0.75154870       0.57454750       0.92760600
   147  C          0.42545250       0.17700120       0.92760600
   148  C          0.15633213       0.91511797       0.59427267
   149  C          0.08488203       0.24121417       0.59427267
   150  C          0.75878583       0.84366787       0.59427267
   151  C          0.48966547       0.58178463       0.26093933
   152  C          0.41821537       0.90788083       0.26093933
   153  C          0.09211917       0.51033453       0.26093933
   154  H          0.23620000       0.73120000       0.05280000
   155  H          0.26880000       0.50500000       0.05280000
   156  H          0.49500000       0.76380000       0.05280000
   157  H          0.90286667       0.06453333       0.38613333
   158  H          0.93546667       0.83833333       0.38613333
   159  H          0.16166667       0.09713333       0.38613333
   160  H          0.56953333       0.39786667       0.71946667
   161  H          0.60213333       0.17166667       0.71946667
   162  H          0.82833333       0.43046667       0.71946667
   163  H          0.76380000       0.26880000       0.94720000
   164  H          0.73120000       0.49500000       0.94720000
   165  H          0.50500000       0.23620000       0.94720000
   166  H          0.09713333       0.93546667       0.61386667
   167  H          0.06453333       0.16166667       0.61386667
   168  H          0.83833333       0.90286667       0.61386667
   169  H          0.43046667       0.60213333       0.28053333
   170  H          0.39786667       0.82833333       0.28053333
   171  H          0.17166667       0.56953333       0.28053333
   172  C          0.13838110       0.84823880       0.05639400
   173  C          0.15176120       0.29014230       0.05639400
   174  C          0.70985770       0.86161890       0.05639400
   175  C          0.80504777       0.18157213       0.38972733
   176  C          0.81842787       0.62347563       0.38972733
   177  C          0.37652437       0.19495223       0.38972733
   178  C          0.47171443       0.51490547       0.72306067
   179  C          0.48509453       0.95680897       0.72306067
   180  C          0.04319103       0.52828557       0.72306067
   181  C          0.86161890       0.15176120       0.94360600
   182  C          0.84823880       0.70985770       0.94360600
   183  C          0.29014230       0.13838110       0.94360600
   184  C          0.19495223       0.81842787       0.61027267
   185  C          0.18157213       0.37652437       0.61027267
   186  C          0.62347563       0.80504777       0.61027267
   187  C          0.52828557       0.48509453       0.27693933
   188  C          0.51490547       0.04319103       0.27693933
   189  C          0.95680897       0.47171443       0.27693933
   190  H          0.17090000       0.89320000       0.02570000
   191  H          0.10680000       0.27770000       0.02570000
   192  H          0.72230000       0.82910000       0.02570000
   193  H          0.83756667       0.22653333       0.35903333
   194  H          0.77346667       0.61103333       0.35903333
   195  H          0.38896667       0.16243333       0.35903333
   196  H          0.50423333       0.55986667       0.69236667
   197  H          0.44013333       0.94436667       0.69236667
   198  H          0.05563333       0.49576667       0.69236667
   199  H          0.82910000       0.10680000       0.97430000
   200  H          0.89320000       0.72230000       0.97430000
   201  H          0.27770000       0.17090000       0.97430000
   202  H          0.16243333       0.77346667       0.64096667
   203  H          0.22653333       0.38896667       0.64096667
   204  H          0.61103333       0.83756667       0.64096667
   205  H          0.49576667       0.44013333       0.30763333
   206  H          0.55986667       0.05563333       0.30763333
   207  H          0.94436667       0.50423333       0.30763333
   208  C          0.63314170       0.43940170       0.05945500
   209  C          0.56059830       0.19374000       0.05945500
   210  C          0.80626000       0.36685830       0.05945500
   211  C          0.29980837       0.77273503       0.39278833
   212  C          0.22726497       0.52707333       0.39278833
   213  C          0.47292667       0.70019163       0.39278833
   214  C          0.96647503       0.10606837       0.72612167
   215  C          0.89393163       0.86040667       0.72612167
   216  C          0.13959333       0.03352497       0.72612167
   217  C          0.36685830       0.56059830       0.94054500
   218  C          0.43940170       0.80626000       0.94054500
   219  C          0.19374000       0.63314170       0.94054500
   220  C          0.70019163       0.22726497       0.60721167
   221  C          0.77273503       0.47292667       0.60721167
   222  C          0.52707333       0.29980837       0.60721167
   223  C          0.03352497       0.89393163       0.27387833
   224  C          0.10606837       0.13959333       0.27387833
   225  C          0.86040667       0.96647503       0.27387833
   226  H          0.60990000       0.51230000       0.05970000
   227  H          0.48770000       0.09760000       0.05970000
   228  H          0.90240000       0.39010000       0.05970000
   229  H          0.27656667       0.84563333       0.39303333
   230  H          0.15436667       0.43093333       0.39303333
   231  H          0.56906667       0.72343333       0.39303333
   232  H          0.94323333       0.17896667       0.72636667
   233  H          0.82103333       0.76426667       0.72636667
   234  H          0.23573333       0.05676667       0.72636667
   235  H          0.39010000       0.48770000       0.94030000
   236  H          0.51230000       0.90240000       0.94030000
   237  H          0.09760000       0.60990000       0.94030000
   238  H          0.72343333       0.15436667       0.60696667
   239  H          0.84563333       0.56906667       0.60696667
   240  H          0.43093333       0.27656667       0.60696667
   241  H          0.05676667       0.82103333       0.27363333
   242  H          0.17896667       0.23573333       0.27363333
   243  H          0.76426667       0.94323333       0.27363333
   244  C          0.52647160       0.29924180       0.05928500
   245  C          0.70075820       0.22722980       0.05928500
   246  C          0.77277020       0.47352840       0.05928500
   247  C          0.19313827       0.63257513       0.39261833
   248  C          0.36742487       0.56056313       0.39261833
   249  C          0.43943687       0.80686173       0.39261833
   250  C          0.85980493       0.96590847       0.72595167
   251  C          0.03409153       0.89389647       0.72595167
   252  C          0.10610353       0.14019507       0.72595167
   253  C          0.47352840       0.70075820       0.94071500
   254  C          0.29924180       0.77277020       0.94071500
   255  C          0.22722980       0.52647160       0.94071500
   256  C          0.80686173       0.36742487       0.60738167
   257  C          0.63257513       0.43943687       0.60738167
   258  C          0.56056313       0.19313827       0.60738167
   259  C          0.14019507       0.03409153       0.27404833
   260  C          0.96590847       0.10610353       0.27404833
   261  C          0.89389647       0.85980493       0.27404833
   262  H          0.43030000       0.27600000       0.05900000
   263  H          0.72400000       0.15430000       0.05900000
   264  H          0.84570000       0.56970000       0.05900000
   265  H          0.09696667       0.60933333       0.39233333
   266  H          0.39066667       0.48763333       0.39233333
   267  H          0.51236667       0.90303333       0.39233333
   268  H          0.76363333       0.94266667       0.72566667
   269  H          0.05733333       0.82096667       0.72566667
   270  H          0.17903333       0.23636667       0.72566667
   271  H          0.56970000       0.72400000       0.94100000
   272  H          0.27600000       0.84570000       0.94100000
   273  H          0.15430000       0.43030000       0.94100000
   274  H          0.90303333       0.39066667       0.60766667
   275  H          0.60933333       0.51236667       0.60766667
   276  H          0.48763333       0.09696667       0.60766667
   277  H          0.23636667       0.05733333       0.27433333
   278  H          0.94266667       0.17903333       0.27433333
   279  H          0.82096667       0.76363333       0.27433333
