data_CASSEW
_symmetry_space_group_name_H-M    'P1'
_symmetry_Int_Tables_number       1
loop_
_symmetry_equiv_pos_site_id
_symmetry_equiv_pos_as_xyz
1 x,y,z
_cell_length_a                   11.43244
_cell_length_b                   13.16525
_cell_length_c                   17.53446
_cell_angle_alpha                92.8073
_cell_angle_beta                 90.3122
_cell_angle_gamma                99.2832
loop_
_atom_site_label
_atom_site_type_symbol
_atom_site_fract_x
_atom_site_fract_y
_atom_site_fract_z
     1  C          0.88658000       0.25226170       0.79974880
     2  C          0.11342000       0.74773830       0.20025120
     3  C          0.68768000       0.21785170       0.81537870
     4  C          0.31232000       0.78214830       0.18462130
     5  H          0.61110000       0.22040000       0.83550000
     6  H          0.38890000       0.77960000       0.16450000
     7  C          0.71228000       0.15876170       0.75420870
     8  C          0.28772000       0.84123830       0.24579130
     9  C          0.90548000       0.13185190       0.69020860
    10  C          0.09452000       0.86814810       0.30979140
    11  C          0.93388000       0.03652000       0.70468840
    12  C          0.06612000       0.96348000       0.29531160
    13  H          0.90590000       0.00190000       0.74900000
    14  H          0.09410000      -0.00190000       0.25100000
    15  C          0.00533000      -0.00772000       0.65218000
    16  C         -0.00533000       0.00772000       0.34782000
    17  H          0.02630000       0.92680000       0.66080000
    18  H          0.97370000       0.07320000       0.33920000
    19  C          0.04493000       0.04263000       0.58883810
    20  C          0.95507000       0.95737000       0.41116190
    21  H          0.09360000       0.01210000       0.55380000
    22  H          0.90640000       0.98790000       0.44620000
    23  C          0.01503000       0.13683000       0.57536830
    24  C          0.98497000       0.86317000       0.42463170
    25  H          0.04240000       0.17090000       0.53080000
    26  H          0.95760000       0.82910000       0.46920000
    27  C          0.94428000       0.18302000       0.62697850
    28  C          0.05572000       0.81698000       0.37302150
    29  H          0.92370000       0.24850000       0.61820000
    30  H          0.07630000       0.75150000       0.38180000
    31  C          0.80658000       0.34813170       0.90768880
    32  C          0.19342000       0.65186830       0.09231120
    33  C          0.85678000       0.32372000       0.97480870
    34  C          0.14322000       0.67628000       0.02519130
    35  H          0.87890000       0.25770000       0.97950000
    36  H          0.12110000       0.74230000       0.02050000
    37  C          0.87448000       0.39642000       0.03503140
    38  C          0.12552000       0.60358000       0.96496860
    39  H          0.90860000       0.38030000       0.08150000
    40  H          0.09140000       0.61970000       0.91850000
    41  C          0.84298000       0.49192000       0.02804150
    42  C          0.15702000       0.50808000       0.97195850
    43  H          0.85780000       0.54230000       0.06910000
    44  H          0.14220000       0.45770000       0.93090000
    45  C          0.78997000       0.51472000       0.96160840
    46  C          0.21003000       0.48528000       0.03839160
    47  H          0.76580000       0.57990000       0.95750000
    48  H          0.23420000       0.42010000       0.04250000
    49  C          0.77178000       0.44207190       0.90052860
    50  C          0.22822000       0.55792810       0.09947140
    51  H          0.73570000       0.45750000       0.85450000
    52  H          0.26430000       0.54250000       0.14550000
    53  C          0.63978000       0.09149180       0.59856880
    54  C          0.36022000       0.90850820       0.40143120
    55  C          0.64697000       0.19072000       0.57443860
    56  C          0.35303000       0.80928000       0.42556140
    57  H          0.64110000       0.24590000       0.61040000
    58  H          0.35890000       0.75410000       0.38960000
    59  C          0.66307000       0.20972000       0.49770840
    60  C          0.33693000       0.79028000       0.50229160
    61  H          0.66820000       0.27790000       0.48120000
    62  H          0.33180000       0.72210000       0.51880000
    63  C          0.67158000       0.12902000       0.44495850
    64  C          0.32842000       0.87098000       0.55504150
    65  H          0.68290000       0.14210000       0.39250000
    66  H          0.31710000       0.85790000       0.60750000
    67  C          0.66368000       0.03052000       0.46863860
    68  C          0.33632000       0.96948000       0.53136140
    69  H          0.66920000       0.97540000       0.43250000
    70  H          0.33080000       0.02460000       0.56750000
    71  C          0.64758000       0.01102190       0.54566860
    72  C          0.35242000      -0.01102190       0.45433140
    73  H          0.64200000       0.94260000       0.56190000
    74  H          0.35800000       0.05740000       0.43810000
    75  C          0.46768000       0.09099170       0.72241880
    76  C          0.53232000       0.90900830       0.27758120
    77  C          0.38178000       0.01001190       0.74290870
    78  C          0.61822000      -0.01001190       0.25709130
    79  H          0.40130000       0.94290000       0.74600000
    80  H          0.59870000       0.05710000       0.25400000
    81  C          0.26758000       0.02692000       0.75879860
    82  C          0.73242000       0.97308000       0.24120140
    83  H          0.20890000       0.97120000       0.77200000
    84  H          0.79110000       0.02880000       0.22800000
    85  C          0.23888000       0.12432000       0.75545860
    86  C          0.76112000       0.87568000       0.24454140
    87  H          0.16080000       0.13590000       0.76670000
    88  H          0.83920000       0.86410000       0.23330000
    89  C          0.32388000       0.20492000       0.73570870
    90  C          0.67612000       0.79508000       0.26429130
    91  H          0.30400000       0.27200000       0.73390000
    92  H          0.69600000       0.72800000       0.26610000
    93  C          0.43788000       0.18943190       0.71839870
    94  C          0.56212000       0.81056810       0.28160130
    95  H          0.49540000       0.24530000       0.70390000
    96  H          0.50460000       0.75470000       0.29610000
    97  N          0.83595840       0.18008140       0.74551900
    98  N          0.16404160       0.81991860       0.25448100
    99  N          0.79305840       0.27393140       0.84364900
   100  N          0.20694160       0.72606860       0.15635100
   101  P          0.61394500       0.06238400       0.69821700
   102  P          0.38605500       0.93761600       0.30178300
   103  S          0.02901500       0.30418500       0.80962600
   104  S          0.97098500       0.69581500       0.19037400
   105  S          0.63110400       0.92082500       0.71802600
   106  S          0.36889600       0.07917500       0.28197400
   107  C          0.08642000       0.25597170       0.19978130
   108  C          0.91358000       0.74402830       0.80021870
   109  C          0.28642000       0.28685170       0.18972130
   110  C          0.71358000       0.71314830       0.81027870
   111  H          0.36390000       0.28380000       0.17150000
   112  H          0.63610000       0.71620000       0.82850000
   113  C          0.25896190       0.34386170       0.25157120
   114  C          0.74103810       0.65613830       0.74842880
   115  C          0.06462000       0.36830180       0.31405130
   116  C          0.93538000       0.63169820       0.68594870
   117  C          0.02792000       0.46162000       0.30217160
   118  C          0.97208000       0.53838000       0.69782840
   119  H          0.05000000       0.49770000       0.25750000
   120  H          0.95000000       0.50230000       0.74250000
   121  C          0.95758000       0.50122000       0.35757190
   122  C          0.04242000       0.49878000       0.64242810
   123  H          0.93230000       0.56550000       0.35080000
   124  H          0.06770000       0.43450000       0.64920000
   125  C          0.92478000       0.44813000       0.42151180
   126  C          0.07522000       0.55187000       0.57848820
   127  H          0.87660000       0.47570000       0.45860000
   128  H          0.12340000       0.52430000       0.54140000
   129  C          0.96137000       0.35513000       0.43220170
   130  C          0.03863000       0.64487000       0.56779830
   131  H          0.93860000       0.31880000       0.47660000
   132  H          0.06140000       0.68120000       0.52340000
   133  C          0.03182000       0.31432000       0.37777150
   134  C          0.96818000       0.68568000       0.62222850
   135  H          0.05680000       0.24990000       0.38460000
   136  H          0.94320000       0.75010000       0.61540000
   137  C          0.17222000       0.16262170       0.09197120
   138  C          0.82778000       0.83737830       0.90802880
   139  C          0.11912000       0.18697190       0.02581130
   140  C          0.88088000       0.81302810       0.97418870
   141  H          0.09080000       0.25070000       0.02300000
   142  H          0.90920000       0.74930000       0.97700000
   143  C          0.10772000       0.11672000       0.96350860
   144  C          0.89228000       0.88328000       0.03649140
   145  H          0.07110000       0.13210000       0.91770000
   146  H          0.92890000       0.86790000       0.08230000
   147  C          0.14942000       0.02452000       0.96790860
   148  C          0.85058000       0.97548000       0.03209140
   149  H          0.14060000       0.97630000       0.92540000
   150  H          0.85940000       0.02370000       0.07460000
   151  C          0.20392000       0.00232000       0.03400150
   152  C          0.79608000      -0.00232000       0.96599850
   153  H          0.23340000       0.93910000       0.03650000
   154  H          0.76660000       0.06090000       0.96350000
   155  C          0.21612000       0.07152190       0.09688140
   156  C          0.78388000       0.92847810       0.90311860
   157  H          0.25380000       0.05640000       0.14240000
   158  H          0.74620000       0.94360000       0.85760000
   159  C          0.33932000       0.39782190       0.40702130
   160  C          0.66068000       0.60217810       0.59297870
   161  C          0.35032000       0.47332000       0.46601140
   162  C          0.64968000       0.52668000       0.53398860
   163  H          0.36460000       0.54410000       0.45480000
   164  H          0.63540000       0.45590000       0.54520000
   165  C          0.34043000       0.44533000       0.54122150
   166  C          0.65957000       0.55467000       0.45877850
   167  H          0.34690000       0.49680000       0.58160000
   168  H          0.65310000       0.50320000       0.41840000
   169  C          0.32123000       0.34343000       0.55714170
   170  C          0.67877000       0.65657000       0.44285830
   171  H          0.31570000       0.32450000       0.60880000
   172  H          0.68430000       0.67550000       0.39120000
   173  C          0.30983000       0.26743000       0.49890170
   174  C          0.69017000       0.73257000       0.50109830
   175  H          0.29590000       0.19680000       0.51070000
   176  H          0.70410000       0.80320000       0.48930000
   177  C          0.31873000       0.29402000       0.42313150
   178  C          0.68127000       0.70598000       0.57686850
   179  H          0.31090000       0.24220000       0.38300000
   180  H          0.68910000       0.75780000       0.61700000
   181  C          0.50232000       0.42318170       0.27896120
   182  C          0.49768000       0.57681830       0.72103880
   183  C          0.55412000       0.33812000       0.29767140
   184  C          0.44588000       0.66188000       0.70232860
   185  H          0.51090000       0.28500000       0.32590000
   186  H          0.48910000       0.71500000       0.67410000
   187  C          0.66822000       0.33162000       0.27507150
   188  C          0.33178000       0.66838000       0.72492850
   189  H          0.70330000       0.27400000       0.28800000
   190  H          0.29670000       0.72600000       0.71200000
   191  C          0.73172000       0.40802000       0.23394150
   192  C          0.26828000       0.59198000       0.76605850
   193  H          0.80990000       0.40240000       0.21820000
   194  H          0.19010000       0.59760000       0.78180000
   195  C          0.68172000       0.49262000       0.21561160
   196  C          0.31828000       0.50738000       0.78438840
   197  H          0.72600000       0.54560000       0.18790000
   198  H          0.27400000       0.45440000       0.81210000
   199  C          0.56662000       0.50012000       0.23769140
   200  C          0.43338000       0.49988000       0.76230860
   201  H          0.53200000       0.55790000       0.22450000
   202  H          0.46800000       0.44210000       0.77550000
   203  N          0.13512160       0.32508140       0.25672100
   204  N          0.86487840       0.67491860       0.74327900
   205  N          0.18192160       0.23391140       0.15780100
   206  N          0.81807840       0.76608860       0.84219900
   207  P          0.35490500       0.43889400       0.31000300
   208  P          0.64509500       0.56110600       0.68999700
   209  S          0.94334500       0.20951500       0.18519400
   210  S          0.05665500       0.79048500       0.81480600
   211  S          0.32212600       0.57836400       0.30013400
   212  S          0.67787400       0.42163600       0.69986600
   213  C          0.44802000       0.79072000       0.95905850
   214  C          0.55198000       0.20928000       0.04094150
   215  C          0.46093000       0.68903000       0.94958000
   216  C          0.53907000       0.31097000       0.05042000
   217  H          0.42080000       0.64690000       0.90890000
   218  H          0.57920000       0.35310000       0.09110000
   219  C          0.53314000       0.64813000       0.00003000
   220  C          0.46686000       0.35187000      -0.00003000
   221  H          0.54160000       0.57750000      -0.00610000
   222  H          0.45840000       0.42250000       0.00610000
   223  C          0.59283000       0.70953000       0.05902000
   224  C          0.40717000       0.29047000       0.94098000
   225  H          0.64310000       0.68160000       0.09280000
   226  H          0.35690000       0.31840000       0.90720000
   227  C          0.57893000       0.80923000       0.06796170
   228  C          0.42107000       0.19077000       0.93203830
   229  H          0.61850000       0.85170000       0.10870000
   230  H          0.38150000       0.14830000       0.89130000
   231  C          0.50773000       0.84912000       0.01847150
   232  C          0.49227000       0.15088000       0.98152850
   233  H          0.49920000       0.91950000       0.02540000
   234  H          0.50080000       0.08050000       0.97460000
   235  C          0.37293000       0.83663000       0.90362810
   236  C          0.62707000       0.16337000       0.09637190
   237  H          0.36200000       0.90540000       0.92320000
   238  H          0.63800000       0.09460000       0.07680000
   239  H          0.29540000       0.79250000       0.89740000
   240  H          0.70460000       0.20750000       0.10260000
   241  H          0.41220000       0.84180000       0.85410000
   242  H          0.58780000       0.15820000       0.14590000
