data_CATJUE
_symmetry_space_group_name_H-M    'P1'
_symmetry_Int_Tables_number       1
loop_
_symmetry_equiv_pos_site_id
_symmetry_equiv_pos_as_xyz
1 x,y,z
_cell_length_a                   9.47988
_cell_length_b                   11.012611
_cell_length_c                   13.016616
_cell_angle_alpha                68.21201
_cell_angle_beta                 87.9802
_cell_angle_gamma                64.81401
loop_
_atom_site_label
_atom_site_type_symbol
_atom_site_fract_x
_atom_site_fract_y
_atom_site_fract_z
     1  N          0.09073000       0.30862000       0.39162000
     2  N          0.90927000       0.69138000       0.60838000
     3  N          0.03063000       0.32593000       0.56452000
     4  N          0.96937000       0.67407000       0.43548000
     5  H          0.93080000       0.36110000       0.54540000
     6  H          0.06920000       0.63890000       0.45460000
     7  H          0.06660000       0.31190000       0.62970000
     8  H          0.93340000       0.68810000       0.37030000
     9  S          0.33383100       0.21280100       0.53394700
    10  S          0.66616900       0.78719900       0.46605300
    11  C          0.13113190       0.29233000       0.49184150
    12  C          0.86886810       0.70767000       0.50815850
    13  C          0.22403000       0.25542000       0.34231180
    14  C          0.77597000       0.74458000       0.65768820
    15  C          0.36233180       0.20042000       0.40682140
    16  C          0.63766820       0.79958000       0.59317860
    17  H          0.46060000       0.16080000       0.38510000
    18  H          0.53940000       0.83920000       0.61490000
    19  C          0.20613000       0.26783000       0.22692000
    20  C          0.79387000       0.73217000       0.77308000
    21  C          0.33064000       0.25583000       0.16443000
    22  C          0.66936000       0.74417000       0.83557000
    23  H          0.42690000       0.23760000       0.19720000
    24  H          0.57310000       0.76240000       0.80280000
    25  C          0.31414000       0.26993000       0.05703000
    26  C          0.68586000       0.73007000       0.94297000
    27  H          0.39870000       0.26210000       0.01720000
    28  H          0.60130000       0.73790000       0.98280000
    29  C          0.17404000       0.29574000       0.00643000
    30  C          0.82596000       0.70426000      -0.00643000
    31  H          0.16280000       0.30610000       0.93250000
    32  H          0.83720000       0.69390000       0.06750000
    33  C          0.05154000       0.30574000       0.06633000
    34  C          0.94846000       0.69426000       0.93367000
    35  H          0.95610000       0.32260000       0.03280000
    36  H          0.04390000       0.67740000       0.96720000
    37  C          0.06694000       0.29104000       0.17543000
    38  C          0.93306000       0.70896000       0.82457000
    39  H          0.98240000       0.29690000       0.21510000
    40  H          0.01760000       0.70310000       0.78490000
    41  O          0.17872000       0.41472000       0.71074170
    42  O          0.82128000       0.58528000       0.28925830
    43  H          0.14260000       0.50390000       0.68160000
    44  H          0.85740000       0.49610000       0.31840000
    45  O          0.32513000       0.58612000       0.49512170
    46  O          0.67487000       0.41388000       0.50487830
    47  H          0.37810000       0.49900000       0.53330000
    48  H          0.62190000       0.50100000       0.46670000
    49  C          0.41983000       0.43493000       0.73122000
    50  C          0.58017000       0.56507000       0.26878000
    51  C          0.33733000       0.35523000       0.74462000
    52  C          0.66267000       0.64477000       0.25538000
    53  C          0.41414000       0.20193000       0.79473000
    54  C          0.58586000       0.79807000       0.20527000
    55  H          0.35620000       0.14940000       0.80370000
    56  H          0.64380000       0.85060000       0.19630000
    57  C          0.57124000       0.12993000       0.83013000
    58  C          0.42876000       0.87007000       0.16987000
    59  H          0.62000000       0.02840000       0.86210000
    60  H          0.38000000       0.97160000       0.13790000
    61  C          0.66193000       0.20553000       0.81942000
    62  C          0.33807000       0.79447000       0.18058000
    63  C          0.58573000       0.36023000       0.76922000
    64  C          0.41427000       0.63977000       0.23078000
    65  C          0.67813000       0.43503000       0.75882000
    66  C          0.32187000       0.56497000       0.24118000
    67  H          0.63030000       0.53650000       0.72580000
    68  H          0.36970000       0.46350000       0.27420000
    69  C          0.83563000       0.36223000       0.79613000
    70  C          0.16437000       0.63777000       0.20387000
    71  H          0.89340000       0.41440000       0.78920000
    72  H          0.10660000       0.58560000       0.21080000
    73  C          0.91094000       0.21114000       0.84423000
    74  C          0.08906000       0.78886000       0.15577000
    75  H          0.01870000       0.16220000       0.86900000
    76  H          0.98130000       0.83780000       0.13100000
    77  C          0.82674000       0.13423000       0.85503000
    78  C          0.17326000       0.86577000       0.14497000
    79  H          0.87850000       0.03280000       0.88640000
    80  H          0.12150000       0.96720000       0.11360000
    81  C          0.33973000       0.59843000       0.67452000
    82  C          0.66027000       0.40157000       0.32548000
    83  C          0.30103000       0.66443000       0.56032000
    84  C          0.69897000       0.33557000       0.43968000
    85  C          0.23024000       0.81773000       0.50293000
    86  C          0.76976000       0.18227000       0.49707000
    87  H          0.20430000       0.86010000       0.42550000
    88  H          0.79570000       0.13990000       0.57450000
    89  C          0.20054000       0.90223000       0.56223000
    90  C          0.79946000       0.09777000       0.43777000
    91  H          0.15490000       0.00310000       0.52410000
    92  H          0.84510000      -0.00310000       0.47590000
    93  C          0.23633000       0.84263000       0.67883000
    94  C          0.76367000       0.15737000       0.32117000
    95  C          0.30913000       0.68663000       0.73662000
    96  C          0.69087000       0.31337000       0.26338000
    97  C          0.34373000       0.62763000       0.85362000
    98  C          0.65627000       0.37237000       0.14638000
    99  H          0.38860000       0.52680000       0.89230000
   100  H          0.61140000       0.47320000       0.10770000
   101  C          0.31353000       0.71403000       0.91213000
   102  C          0.68647000       0.28597000       0.08787000
   103  H          0.33920000       0.67220000      -0.01050000
   104  H          0.66080000       0.32780000       0.01050000
   105  C          0.24324000       0.86654000       0.85493000
   106  C          0.75676000       0.13346000       0.14507000
   107  H          0.22260000       0.92560000       0.89470000
   108  H          0.77740000       0.07440000       0.10530000
   109  C          0.20534000       0.92793000       0.74203000
   110  C          0.79466000       0.07207000       0.25797000
   111  H          0.15750000       0.02900000       0.70560000
   112  H          0.84250000       0.97100000       0.29440000
