data_CAVYED
_symmetry_space_group_name_H-M    'P1'
_symmetry_Int_Tables_number       1
loop_
_symmetry_equiv_pos_site_id
_symmetry_equiv_pos_as_xyz
1 x,y,z
_cell_length_a                   3.9521
_cell_length_b                   19.951
_cell_length_c                   9.5514
_cell_angle_alpha                90.0
_cell_angle_beta                 96.603
_cell_angle_gamma                90.0
loop_
_atom_site_label
_atom_site_type_symbol
_atom_site_fract_x
_atom_site_fract_y
_atom_site_fract_z
     1  Cl         0.84631000       0.50576200       0.81780400
     2  Cl         0.15369000       0.00576200       0.68219600
     3  Cl         0.15369000       0.49423800       0.18219600
     4  Cl         0.84631000      -0.00576200       0.31780400
     5  O          0.71133000       0.39262600       0.61821000
     6  O          0.28867000       0.89262600       0.88179000
     7  O          0.28867000       0.60737400       0.38179000
     8  O          0.71133000       0.10737400       0.11821000
     9  O          0.15843000       0.60975500       0.65211000
    10  O          0.84157000       0.10975500       0.84789000
    11  O          0.84157000       0.39024500       0.34789000
    12  O          0.15843000       0.89024500       0.15211000
    13  C          0.84734000       0.44464700       0.56761000
    14  C          0.15266000       0.94464700       0.93239000
    15  C          0.15266000       0.55535300       0.43239000
    16  C          0.84734000       0.05535300       0.06761000
    17  C          0.92454000       0.50125700       0.64341000
    18  C          0.07546000       0.00125700       0.85659000
    19  C          0.07546000       0.49874300       0.35659000
    20  C          0.92454000      -0.00125700       0.14341000
    21  C          0.08034000       0.55845700       0.58611000
    22  C          0.91966000       0.05845700       0.91389000
    23  C          0.91966000       0.44154300       0.41389000
    24  C          0.08034000       0.94154300       0.08611000
    25  H          0.67080000       0.34820000       0.55630000
    26  H          0.32920000       0.84820000       0.94370000
    27  H          0.32920000       0.65180000       0.44370000
    28  H          0.67080000       0.15180000       0.05630000
    29  N          0.58033000       0.27518700       0.50291000
    30  N          0.41967000       0.77518700      -0.00291000
    31  N          0.41967000       0.72481300       0.49709000
    32  N          0.58033000       0.22481300       0.00291000
    33  N          0.26144000       0.21515700       0.32081000
    34  N          0.73856000       0.71515700       0.17919000
    35  N          0.73856000       0.78484300       0.67919000
    36  N          0.26144000       0.28484300       0.82081000
    37  C          0.37684000       0.27122800       0.38252000
    38  C          0.62316000       0.77122800       0.11748000
    39  C          0.62316000       0.72877200       0.61748000
    40  C          0.37684000       0.22877200       0.88252000
    41  C          0.36135000       0.15829800       0.38642000
    42  C          0.63865000       0.65829800       0.11358000
    43  C          0.63865000       0.84170200       0.61358000
    44  C          0.36135000       0.34170200       0.88642000
    45  C          0.56984000       0.15761900       0.51202000
    46  C          0.43016000       0.65761900      -0.01202000
    47  C          0.43016000       0.84238100       0.48798000
    48  C          0.56984000       0.34238100       0.01202000
    49  C          0.67554000       0.21800900       0.56792000
    50  C          0.32446000       0.71800900       0.93208000
    51  C          0.32446000       0.78199100       0.43208000
    52  C          0.67554000       0.28199100       0.06792000
    53  H          0.30840000       0.31439000       0.33620000
    54  H          0.69160000       0.81439000       0.16380000
    55  H          0.69160000       0.68561000       0.66380000
    56  H          0.30840000       0.18561000       0.83620000
    57  H          0.28450000       0.11810000       0.34120000
    58  H          0.71550000       0.61810000       0.15880000
    59  H          0.71550000       0.88190000       0.65880000
    60  H          0.28450000       0.38190000       0.84120000
    61  H          0.62950000       0.11829000       0.55920000
    62  H          0.37050000       0.61829000       0.94080000
    63  H          0.37050000       0.88171000       0.44080000
    64  H          0.62950000       0.38171000       0.05920000
    65  H          0.83350000       0.22369000       0.65720000
    66  H          0.16650000       0.72369000       0.84280000
    67  H          0.16650000       0.77631000       0.34280000
    68  H          0.83350000       0.27631000       0.15720000
