data_CAWDUC
_symmetry_space_group_name_H-M    'P1'
_symmetry_Int_Tables_number       1
loop_
_symmetry_equiv_pos_site_id
_symmetry_equiv_pos_as_xyz
1 x,y,z
_cell_length_a                   10.16174
_cell_length_b                   11.10524
_cell_length_c                   12.79385
_cell_angle_alpha                111.01701
_cell_angle_beta                 109.26601
_cell_angle_gamma                95.93101
loop_
_atom_site_label
_atom_site_type_symbol
_atom_site_fract_x
_atom_site_fract_y
_atom_site_fract_z
     1  S         -0.01483400       0.47485300       0.32806300
     2  S          0.01483400       0.52514700       0.67193700
     3  N          0.11632120       0.66247110       0.57640100
     4  N          0.88367880       0.33752890       0.42359900
     5  B          0.20957160       0.78646140       0.56703140
     6  B          0.79042840       0.21353860       0.43296860
     7  C          0.18531160       0.91252130       0.66942130
     8  C          0.81468840       0.08747870       0.33057870
     9  H          0.24120000      -0.00310000       0.67880000
    10  H          0.75880000       0.00310000       0.32120000
    11  H          0.08220000       0.91270000       0.64050000
    12  H          0.91780000       0.08730000       0.35950000
    13  C          0.23124140       0.90593130       0.79124130
    14  C          0.76875860       0.09406870       0.20875870
    15  C          0.30409160       0.01706150       0.90200140
    16  C          0.69590840      -0.01706150       0.09799860
    17  H          0.33160000       0.10130000       0.90180000
    18  H          0.66840000       0.89870000       0.09820000
    19  C          0.33723180       0.00767160       0.01213150
    20  C          0.66276820      -0.00767160      -0.01213150
    21  H          0.38790000       0.08500000       0.08610000
    22  H          0.61210000       0.91500000       0.91390000
    23  C          0.29722180       0.88645170       0.01564140
    24  C          0.70277820       0.11354830       0.98435860
    25  H          0.31860000       0.88080000       0.09160000
    26  H          0.68140000       0.11920000       0.90840000
    27  C          0.22589160       0.77391150       0.90764130
    28  C          0.77410840       0.22608850       0.09235870
    29  H          0.19860000       0.69020000       0.90900000
    30  H          0.80140000       0.30980000       0.09100000
    31  C          0.19405140       0.78338130       0.79639120
    32  C          0.80594860       0.21661870       0.20360880
    33  C          0.11572140       0.66764130       0.68181120
    34  C          0.88427860       0.33235870       0.31818880
    35  C          0.03096140       0.54316130       0.48297120
    36  C          0.96903860       0.45683870       0.51702880
    37  C          0.38290140       0.79147130       0.61841120
    38  C          0.61709860       0.20852870       0.38158880
    39  C          0.44810150       0.69179140       0.64207130
    40  C          0.55189850       0.30820860       0.35792870
    41  C          0.59809160       0.71266160       0.68955140
    42  C          0.40190840       0.28733840       0.31044860
    43  H          0.63800000       0.64500000       0.70700000
    44  H          0.36200000       0.35500000       0.29300000
    45  C          0.69055160       0.82841170       0.71209150
    46  C          0.30944840       0.17158830       0.28790850
    47  C          0.62849160       0.92305160       0.68410140
    48  C          0.37150840       0.07694840       0.31589860
    49  H          0.68920000       0.00130000       0.69470000
    50  H          0.31080000      -0.00130000       0.30530000
    51  C          0.47966160       0.90893140       0.64064130
    52  C          0.52033840       0.09106860       0.35935870
    53  C          0.36572170       0.55275150       0.61001160
    54  C          0.63427830       0.44724850       0.38998840
    55  H          0.29020000       0.51690000       0.52760000
    56  H          0.70980000       0.48310000       0.47240000
    57  H          0.32180000       0.55690000       0.66850000
    58  H          0.67820000       0.44310000       0.33150000
    59  H          0.43200000       0.49480000       0.61330000
    60  H          0.56800000       0.50520000       0.38670000
    61  C          0.85243190       0.84902000       0.76572000
    62  C          0.14756810       0.15098000       0.23428000
    63  H          0.87650000       0.76340000       0.73520000
    64  H          0.12350000       0.23660000       0.26480000
    65  H          0.88780000       0.88590000       0.85480000
    66  H          0.11220000       0.11410000       0.14520000
    67  H          0.89770000       0.91110000       0.74170000
    68  H          0.10230000       0.08890000       0.25830000
    69  C          0.43121180       0.02289150       0.61338160
    70  C          0.56878820       0.97710850       0.38661840
    71  H          0.50000000       0.06390000       0.58980000
    72  H          0.50000000       0.93610000       0.41020000
    73  H          0.42650000       0.08960000       0.68620000
    74  H          0.57350000       0.91040000       0.31380000
    75  H          0.33570000      -0.01120000       0.54650000
    76  H          0.66430000       0.01120000       0.45350000
    77  C          0.13204150       0.76201130       0.42261130
    78  C          0.86795850       0.23798870       0.57738870
    79  C          0.19730160       0.71684130       0.33716130
    80  C          0.80269840       0.28315870       0.66283870
    81  C          0.13187180       0.70528160       0.21809150
    82  C          0.86812820       0.29471840       0.78190850
    83  H          0.18060000       0.67860000       0.16500000
    84  H          0.81940000       0.32140000       0.83500000
    85  C         -0.00102000       0.73110190       0.17422160
    86  C          0.00102000       0.26889810       0.82577840
    87  C          0.92993810       0.76579170       0.25331150
    88  C          0.07006190       0.23420830       0.74668850
    89  H          0.83670000       0.78030000       0.22470000
    90  H          0.16330000       0.21970000       0.77530000
    91  C         -0.00830160       0.78041140       0.37345140
    92  C          0.00830160       0.21958860       0.62654860
    93  C          0.33275170       0.66680160       0.36130140
    94  C          0.66724830       0.33319840       0.63869860
    95  H          0.34440000       0.62330000       0.28450000
    96  H          0.65560000       0.37670000       0.71550000
    97  H          0.32500000       0.60270000       0.39670000
    98  H          0.67500000       0.39730000       0.60330000
    99  H          0.41640000       0.74210000       0.41830000
   100  H          0.58360000       0.25790000       0.58170000
   101  C          0.93037000       0.71773000       0.04439190
   102  C          0.06963000       0.28227000       0.95560810
   103  H          0.94740000       0.63910000      -0.01080000
   104  H          0.05260000       0.36090000       0.01080000
   105  H          0.97290000       0.79750000       0.03910000
   106  H          0.02710000       0.20250000       0.96090000
   107  H          0.82650000       0.70790000       0.02100000
   108  H          0.17350000       0.29210000       0.97900000
   109  C          0.89195840       0.80735170       0.44114150
   110  C          0.10804160       0.19264830       0.55885850
   111  H          0.79170000       0.77690000       0.38210000
   112  H          0.20830000       0.22310000       0.61790000
   113  H          0.91450000       0.90320000       0.49150000
   114  H          0.08550000       0.09680000       0.50850000
   115  H          0.90550000       0.75930000       0.49340000
   116  H          0.09450000       0.24070000       0.50660000
   117  C          0.51003000       0.54013000       0.11752000
   118  C          0.48997000       0.45987000       0.88248000
   119  H          0.51810000       0.56830000       0.19920000
   120  H          0.48190000       0.43170000       0.80080000
   121  C          0.49203000       0.62622000       0.06242000
   122  C          0.50797000       0.37378000       0.93758000
   123  H          0.48530000       0.71340000       0.10570000
   124  H          0.51470000       0.28660000       0.89430000
   125  C          0.48363000       0.58782000       0.94612000
   126  C          0.51637000       0.41218000       0.05388000
   127  H          0.47340000       0.64850000       0.90900000
   128  H          0.52660000       0.35150000       0.09100000
