data_CAYMOF
_symmetry_space_group_name_H-M    'P1'
_symmetry_Int_Tables_number       1
loop_
_symmetry_equiv_pos_site_id
_symmetry_equiv_pos_as_xyz
1 x,y,z
_cell_length_a                   7.38503
_cell_length_b                   9.73593
_cell_length_c                   13.72185
_cell_angle_alpha                69.3472
_cell_angle_beta                 87.2092
_cell_angle_gamma                67.9452
loop_
_atom_site_label
_atom_site_type_symbol
_atom_site_fract_x
_atom_site_fract_y
_atom_site_fract_z
     1  Cl         0.62051700       0.89457500       0.15631400
     2  Cl         0.37948300       0.10542500       0.84368600
     3  Cl         0.56440700       0.24589600       0.01370300
     4  Cl         0.43559300       0.75410400       0.98629700
     5  O          0.17362000       0.23085170       0.45702120
     6  O          0.82638000       0.76914830       0.54297880
     7  O          0.30282000       0.97803840       0.48900100
     8  O          0.69718000       0.02196160       0.51099900
     9  N          0.26992000       0.11647190       0.43269120
    10  N          0.73008000       0.88352810       0.56730880
    11  C          0.34863000       0.14632000       0.33009130
    12  C          0.65137000       0.85368000       0.66990870
    13  C          0.44153000       0.01862000       0.29880140
    14  C          0.55847000       0.98138000       0.70119860
    15  C          0.50853000       0.04942000       0.19999140
    16  C          0.49147000       0.95058000       0.80000860
    17  C          0.48323000       0.20532000       0.13667130
    18  C          0.51677000       0.79468000       0.86332870
    19  C          0.39063000       0.32992000       0.17175140
    20  C          0.60937000       0.67008000       0.82824860
    21  C          0.32143000       0.30162000       0.26946150
    22  C          0.67857000       0.69838000       0.73053850
    23  H          0.45530000       0.91480000       0.34291600
    24  H          0.54470000       0.08520000       0.65708400
    25  H          0.37730000       0.43430000       0.12691700
    26  H          0.62270000       0.56570000       0.87308300
    27  H          0.25830000       0.38330000       0.29251800
    28  H          0.74170000       0.61670000       0.70748200
    29  Cl         0.03628700       0.29879500       0.00375300
    30  Cl         0.96371300       0.70120500      -0.00375300
    31  Cl         0.81808700       0.41958500       0.18010400
    32  Cl         0.18191300       0.58041500       0.81989600
    33  O          0.08072000       0.64667840       0.31897110
    34  O          0.91928000       0.35332160       0.68102890
    35  O          0.27262000       0.68237840       0.19579110
    36  O          0.72738000       0.31762160       0.80420890
    37  N          0.14692000       0.73118820       0.25055120
    38  N          0.85308000       0.26881180       0.74944880
    39  C          0.06993000       0.90118000       0.23400140
    40  C          0.93007000       0.09882000       0.76599860
    41  C          0.09463000       0.00512000       0.13951140
    42  C          0.90537000      -0.00512000       0.86048860
    43  C          0.01572000       0.16632000       0.12259140
    44  C          0.98428000       0.83368000       0.87740860
    45  C          0.91902000       0.21912000       0.19974140
    46  C          0.08098000       0.78088000       0.80025860
    47  C          0.89803000       0.11192000       0.29399150
    48  C          0.10197000       0.88808000       0.70600850
    49  C          0.97173000       0.95158000       0.31118150
    50  C          0.02827000       0.04842000       0.68881850
    51  H          0.16330000       0.96680000       0.08631500
    52  H          0.83670000       0.03320000       0.91368500
    53  H          0.82930000       0.14920000       0.34521700
    54  H          0.17070000       0.85080000       0.65478300
    55  H          0.95830000       0.87580000       0.37271600
    56  H          0.04170000       0.12420000       0.62728400
    57  O          0.43962000       0.65954150       0.42982100
    58  O          0.56038000       0.34045850       0.57017900
    59  C          0.36593000       0.61892000       0.52986160
    60  C          0.63407000       0.38108000       0.47013840
    61  C          0.63393000       0.54612000       0.43493180
    62  C          0.36607000       0.45388000       0.56506820
    63  H          0.44930000       0.62320000       0.58441700
    64  H          0.55070000       0.37680000       0.41558300
    65  H          0.23530000       0.69630000       0.52141600
    66  H          0.76470000       0.30370000       0.47858400
    67  H          0.71830000       0.55130000       0.48341800
    68  H          0.28170000       0.44870000       0.51658200
    69  H          0.67630000       0.57630000       0.36471800
    70  H          0.32370000       0.42370000       0.63528200
