data_CAZCAL
_symmetry_space_group_name_H-M    'P1'
_symmetry_Int_Tables_number       1
loop_
_symmetry_equiv_pos_site_id
_symmetry_equiv_pos_as_xyz
1 x,y,z
_cell_length_a                   11.00424
_cell_length_b                   20.62095
_cell_length_c                   9.23713
_cell_angle_alpha                90.0
_cell_angle_beta                 90.0
_cell_angle_gamma                90.0
loop_
_atom_site_label
_atom_site_type_symbol
_atom_site_fract_x
_atom_site_fract_y
_atom_site_fract_z
     1  I          0.78735200       0.39662200       0.40387300
     2  I          0.71264800       0.60337800       0.90387300
     3  I          0.21264800       0.89662200       0.59612700
     4  I          0.28735200       0.10337800       0.09612700
     5  I          0.21264800       0.60337800       0.59612700
     6  I          0.28735200       0.39662200       0.09612700
     7  I          0.78735200       0.10337800       0.40387300
     8  I          0.71264800       0.89662200       0.90387300
     9  F          0.70382000       0.25000000       0.39863000
    10  F          0.79618000       0.75000000       0.89863000
    11  F          0.29618000       0.75000000       0.60137000
    12  F          0.20382000       0.25000000       0.10137000
    13  F          0.07476180       0.36309100       0.41352000
    14  F          0.42523820       0.63690900       0.91352000
    15  F          0.92523820       0.86309100       0.58648000
    16  F          0.57476180       0.13690900       0.08648000
    17  F          0.92523820       0.63690900       0.58648000
    18  F          0.57476180       0.36309100       0.08648000
    19  F          0.07476180       0.13690900       0.41352000
    20  F          0.42523820       0.86309100       0.91352000
    21  F          0.19602000       0.25000000       0.41293000
    22  F          0.30398000       0.75000000       0.91293000
    23  F          0.80398000       0.75000000       0.58707000
    24  F          0.69602000       0.25000000       0.08707000
    25  C          0.82714000       0.25000000       0.40335000
    26  C          0.67286000       0.75000000       0.90335000
    27  C          0.17286000       0.75000000       0.59665000
    28  C          0.32714000       0.25000000       0.09665000
    29  C          0.88553000       0.30881150       0.40643000
    30  C          0.61447000       0.69118850       0.90643000
    31  C          0.11447000       0.80881150       0.59357000
    32  C          0.38553000       0.19118850       0.09357000
    33  C          0.11447000       0.69118850       0.59357000
    34  C          0.38553000       0.30881150       0.09357000
    35  C          0.88553000       0.19118850       0.40643000
    36  C          0.61447000       0.80881150       0.90643000
    37  C          0.01083000       0.30739160       0.41003000
    38  C          0.48917000       0.69260840       0.91003000
    39  C         -0.01083000       0.80739160       0.58997000
    40  C          0.51083000       0.19260840       0.08997000
    41  C         -0.01083000       0.69260840       0.58997000
    42  C          0.51083000       0.30739160       0.08997000
    43  C          0.01083000       0.19260840       0.41003000
    44  C          0.48917000       0.80739160       0.91003000
    45  C          0.07364000       0.25000000       0.41065000
    46  C          0.42636000       0.75000000       0.91065000
    47  C          0.92636000       0.75000000       0.58935000
    48  C          0.57364000       0.25000000       0.08935000
    49  N          0.64663000       0.51087140       0.39224000
    50  N          0.85337000       0.48912860       0.89224000
    51  N          0.35337000       0.01087140       0.60776000
    52  N          0.14663000       0.98912860       0.10776000
    53  N          0.35337000       0.48912860       0.60776000
    54  N          0.14663000       0.51087140       0.10776000
    55  N          0.64663000       0.98912860       0.39224000
    56  N          0.85337000       0.01087140       0.89224000
    57  N          0.28584000       0.75000000       0.24705000
    58  N          0.21416000       0.25000000       0.74705000
    59  N          0.71416000       0.25000000       0.75295000
    60  N          0.78584000       0.75000000       0.25295000
    61  C          0.66493000       0.56103170       0.47954000
    62  C          0.83507000       0.43896830       0.97954000
    63  C          0.33507000       0.06103170       0.52046000
    64  C          0.16493000       0.93896830       0.02046000
    65  C          0.33507000       0.43896830       0.52046000
    66  C          0.16493000       0.56103170       0.02046000
    67  C          0.66493000       0.93896830       0.47954000
    68  C          0.83507000       0.06103170       0.97954000
    69  H          0.72060000       0.55640000       0.55450000
    70  H          0.77940000       0.44360000       0.05450000
    71  H          0.27940000       0.05640000       0.44550000
    72  H          0.22060000       0.94360000       0.94550000
    73  H          0.27940000       0.44360000       0.44550000
    74  H          0.22060000       0.55640000       0.94550000
    75  H          0.72060000       0.94360000       0.55450000
    76  H          0.77940000       0.05640000       0.05450000
    77  C          0.60573000       0.61982160       0.46534000
    78  C          0.89427000       0.38017840       0.96534000
    79  C          0.39427000       0.11982160       0.53466000
    80  C          0.10573000       0.88017840       0.03466000
    81  C          0.39427000       0.38017840       0.53466000
    82  C          0.10573000       0.61982160       0.03466000
    83  C          0.60573000       0.88017840       0.46534000
    84  C          0.89427000       0.11982160       0.96534000
    85  H          0.62220000       0.65330000       0.52980000
    86  H          0.87780000       0.34670000       0.02980000
    87  H          0.37780000       0.15330000       0.47020000
    88  H          0.12220000       0.84670000       0.97020000
    89  H          0.37780000       0.34670000       0.47020000
    90  H          0.12220000       0.65330000       0.97020000
    91  H          0.62220000       0.84670000       0.52980000
    92  H          0.87780000       0.15330000       0.02980000
    93  C          0.52243000       0.62892150       0.35574000
    94  C          0.97757000       0.37107850       0.85574000
    95  C          0.47757000       0.12892150       0.64426000
    96  C          0.02243000       0.87107850       0.14426000
    97  C          0.47757000       0.37107850       0.64426000
    98  C          0.02243000       0.62892150       0.14426000
    99  C          0.52243000       0.87107850       0.35574000
   100  C          0.97757000       0.12892150       0.85574000
   101  C          0.50123000       0.57571170       0.26664000
   102  C         -0.00123000       0.42428830       0.76664000
   103  C          0.49877000       0.07571170       0.73336000
   104  C          0.00123000       0.92428830       0.23336000
   105  C          0.49877000       0.42428830       0.73336000
   106  C          0.00123000       0.57571170       0.23336000
   107  C          0.50123000       0.92428830       0.26664000
   108  C         -0.00123000       0.07571170       0.76664000
   109  H          0.44450000       0.57840000       0.19210000
   110  H          0.05550000       0.42160000       0.69210000
   111  H          0.55550000       0.07840000       0.80790000
   112  H          0.94450000       0.92160000       0.30790000
   113  H          0.55550000       0.42160000       0.80790000
   114  H          0.94450000       0.57840000       0.30790000
   115  H          0.44450000       0.92160000       0.19210000
   116  H          0.05550000       0.07840000       0.69210000
   117  C          0.56464000       0.51908180       0.28925000
   118  C          0.93536000       0.48091820       0.78925000
   119  C          0.43536000       0.01908180       0.71075000
   120  C          0.06464000       0.98091820       0.21075000
   121  C          0.43536000       0.48091820       0.71075000
   122  C          0.06464000       0.51908180       0.21075000
   123  C          0.56464000       0.98091820       0.28925000
   124  C          0.93536000       0.01908180       0.78925000
   125  H          0.54870000       0.48430000       0.22810000
   126  H          0.95130000       0.51570000       0.72810000
   127  H          0.45130000       0.98430000       0.77190000
   128  H          0.04870000       0.01570000       0.27190000
   129  H          0.45130000       0.51570000       0.77190000
   130  H          0.04870000       0.48430000       0.27190000
   131  H          0.54870000       0.01570000       0.22810000
   132  H          0.95130000       0.98430000       0.72810000
   133  C          0.51844000       0.75000000       0.36085000
   134  C          0.98156000       0.25000000       0.86085000
   135  C          0.48156000       0.25000000       0.63915000
   136  C          0.01844000       0.75000000       0.13915000
   137  H          0.59600000       0.75000000       0.40080000
   138  H          0.90400000       0.25000000       0.90080000
   139  H          0.40400000       0.25000000       0.59920000
   140  H          0.09600000       0.75000000       0.09920000
   141  C          0.46103000       0.69167150       0.33123000
   142  C          0.03897000       0.30832850       0.83123000
   143  C          0.53897000       0.19167150       0.66877000
   144  C          0.96103000       0.80832850       0.16877000
   145  C          0.53897000       0.30832850       0.66877000
   146  C          0.96103000       0.69167150       0.16877000
   147  C          0.46103000       0.80832850       0.33123000
   148  C          0.03897000       0.19167150       0.83123000
   149  C          0.34443000       0.69504170       0.27514000
   150  C          0.15557000       0.30495830       0.77514000
   151  C          0.65557000       0.19504170       0.72486000
   152  C          0.84443000       0.80495830       0.22486000
   153  C          0.65557000       0.30495830       0.72486000
   154  C          0.84443000       0.69504170       0.22486000
   155  C          0.34443000       0.80495830       0.27514000
   156  C          0.15557000       0.19504170       0.77514000
   157  H          0.30450000       0.65630000       0.25570000
   158  H          0.19550000       0.34370000       0.75570000
   159  H          0.69550000       0.15630000       0.74430000
   160  H          0.80450000       0.84370000       0.24430000
   161  H          0.69550000       0.34370000       0.74430000
   162  H          0.80450000       0.65630000       0.24430000
   163  H          0.30450000       0.84370000       0.25570000
   164  H          0.19550000       0.15630000       0.75570000
