data_CECBAQ
_symmetry_space_group_name_H-M    'P1'
_symmetry_Int_Tables_number       1
loop_
_symmetry_equiv_pos_site_id
_symmetry_equiv_pos_as_xyz
1 x,y,z
_cell_length_a                   9.19592
_cell_length_b                   11.79823
_cell_length_c                   21.02796
_cell_angle_alpha                90.0
_cell_angle_beta                 100.2903
_cell_angle_gamma                90.0
loop_
_atom_site_label
_atom_site_type_symbol
_atom_site_fract_x
_atom_site_fract_y
_atom_site_fract_z
     1  C          0.23079120       0.55459900       0.64641500
     2  C          0.26920880       0.05459900       0.85358500
     3  C          0.76920880       0.44540100       0.35358500
     4  C          0.73079120       0.94540100       0.14641500
     5  C          0.23425120       0.60008900       0.57939500
     6  C          0.26574880       0.10008900       0.92060500
     7  C          0.76574880       0.39991100       0.42060500
     8  C          0.73425120       0.89991100       0.07939500
     9  C          0.35169130       0.62587100       0.54869600
    10  C          0.14830870       0.12587100       0.95130400
    11  C          0.64830870       0.37412900       0.45130400
    12  C          0.85169130       0.87412900       0.04869600
    13  H          0.44860000       0.61380000       0.56940000
    14  H          0.05140000       0.11380000       0.93060000
    15  H          0.55140000       0.38620000       0.43060000
    16  H          0.94860000       0.88620000       0.06940000
    17  C          0.32196130       0.67038110       0.48609600
    18  C          0.17803870       0.17038110       0.01390400
    19  C          0.67803870       0.32961890       0.51390400
    20  C          0.82196130       0.82961890       0.98609600
    21  H          0.39960000       0.68790000       0.46490000
    22  H          0.10040000       0.18790000       0.03510000
    23  H          0.60040000       0.31210000       0.53510000
    24  H          0.89960000       0.81210000       0.96490000
    25  C          0.17669140       0.68863110       0.45528600
    26  C          0.32330860       0.18863110       0.04471400
    27  C          0.82330860       0.31136890       0.54471400
    28  C          0.67669140       0.81136890       0.95528600
    29  H          0.15870000       0.71820000       0.41360000
    30  H          0.34130000       0.21820000       0.08640000
    31  H          0.84130000       0.28180000       0.58640000
    32  H          0.65870000       0.78180000       0.91360000
    33  C          0.05741130       0.66342100       0.48575600
    34  C          0.44258870       0.16342100       0.01424400
    35  C          0.94258870       0.33657900       0.51424400
    36  C          0.55741130       0.83657900       0.98575600
    37  H          0.96040000       0.67550000       0.46520000
    38  H          0.53960000       0.17550000       0.03480000
    39  H          0.03960000       0.32450000       0.53480000
    40  H          0.46040000       0.82450000       0.96520000
    41  C          0.08957120       0.61983900       0.54768500
    42  C          0.41042880       0.11983900       0.95231500
    43  C          0.91042880       0.38016100       0.45231500
    44  C          0.58957120       0.88016100       0.04768500
    45  C          0.06220120       0.56038900       0.64845600
    46  C          0.43779880       0.06038900       0.85154400
    47  C          0.93779880       0.43961100       0.35154400
    48  C          0.56220120       0.93961100       0.14845600
    49  C          0.82886880       0.60621100       0.57171600
    50  C          0.67113120       0.10621100       0.92828400
    51  C          0.17113120       0.39378900       0.42828400
    52  C          0.32886880       0.89378900       0.07171600
    53  H          0.78250000       0.56240000       0.60170000
    54  H          0.71750000       0.06240000       0.89830000
    55  H          0.21750000       0.43760000       0.39830000
    56  H          0.28250000       0.93760000       0.10170000
    57  H          0.79610000       0.57550000       0.52880000
    58  H          0.70390000       0.07550000       0.97120000
    59  H          0.20390000       0.42450000       0.47120000
    60  H          0.29610000       0.92450000       0.02880000
    61  C          0.77868880       0.72812100       0.57288600
    62  C          0.72131120       0.22812100       0.92711400
    63  C          0.22131120       0.27187900       0.42711400
    64  C          0.27868880       0.77187900       0.07288600
    65  C          0.70842870       0.78159120       0.51660600
    66  C          0.79157130       0.28159120       0.98339400
    67  C          0.29157130       0.21840880       0.48339400
    68  C          0.20842870       0.71840880       0.01660600
    69  H          0.69140000       0.74210000       0.47770000
    70  H          0.80860000       0.24210000       0.02230000
    71  H          0.30860000       0.25790000       0.52230000
    72  H          0.19140000       0.75790000       0.97770000
    73  C          0.66359860       0.89455120       0.51867700
    74  C          0.83640140       0.39455120       0.98132300
    75  C          0.33640140       0.10544880       0.48132300
    76  C          0.16359860       0.60544880       0.01867700
    77  H          0.61580000       0.92970000       0.48110000
    78  H          0.88420000       0.42970000       0.01890000
    79  H          0.38420000       0.07030000       0.51890000
    80  H          0.11580000       0.57030000       0.98110000
    81  C          0.68990850       0.95436120       0.57621800
    82  C          0.81009150       0.45436120       0.92378200
    83  C          0.31009150       0.04563880       0.42378200
    84  C          0.18990850       0.54563880       0.07621800
    85  H          0.66130000       0.02990000       0.57720000
    86  H          0.83870000       0.52990000       0.92280000
    87  H          0.33870000       0.97010000       0.42280000
    88  H          0.16130000       0.47010000       0.07720000
    89  C          0.75941850       0.90098120       0.63262700
    90  C          0.74058150       0.40098120       0.86737300
    91  C          0.24058150       0.09901880       0.36737300
    92  C          0.25941850       0.59901880       0.13262700
    93  H          0.77700000       0.94070000       0.67140000
    94  H          0.72300000       0.44070000       0.82860000
    95  H          0.22300000       0.05930000       0.32860000
    96  H          0.27700000       0.55930000       0.17140000
    97  C          0.80252860       0.78826110       0.63083600
    98  C          0.69747140       0.28826110       0.86916400
    99  C          0.19747140       0.21173890       0.36916400
   100  C          0.30252860       0.71173890       0.13083600
   101  H          0.84770000       0.75260000       0.66870000
   102  H          0.65230000       0.25260000       0.83130000
   103  H          0.15230000       0.24740000       0.33130000
   104  H          0.34770000       0.74740000       0.16870000
   105  C          0.28265120       0.43387900       0.65642500
   106  C          0.21734880       0.93387900       0.84357500
   107  C          0.71734880       0.56612100       0.34357500
   108  C          0.78265120       0.06612100       0.15642500
   109  C          0.43386120       0.39574900       0.66736500
   110  C          0.06613880       0.89574900       0.83263500
   111  C          0.56613880       0.60425100       0.33263500
   112  C          0.93386120       0.10425100       0.16736500
   113  C          0.57176120       0.45055900       0.67559500
   114  C          0.92823880       0.95055900       0.82440500
   115  C          0.42823880       0.54944100       0.32440500
   116  C          0.07176120       0.04944100       0.17559500
   117  H          0.57710000       0.52890000       0.67160000
   118  H          0.92290000       0.02890000       0.82840000
   119  H          0.42290000       0.47110000       0.32840000
   120  H          0.07710000       0.97110000       0.17160000
   121  C          0.69950120       0.38628100       0.68974600
   122  C          0.80049880       0.88628100       0.81025400
   123  C          0.30049880       0.61371900       0.31025400
   124  C          0.19950120       0.11371900       0.18974600
   125  H          0.79140000       0.42140000       0.69530000
   126  H          0.70860000       0.92140000       0.80470000
   127  H          0.20860000       0.57860000       0.30470000
   128  H          0.29140000       0.07860000       0.19530000
   129  C          0.69027120       0.26788100       0.69570500
   130  C          0.80972880       0.76788100       0.80429500
   131  C          0.30972880       0.73211900       0.30429500
   132  C          0.19027120       0.23211900       0.19570500
   133  C          0.55789130       0.20998100       0.68860500
   134  C          0.94210870       0.70998100       0.81139500
   135  C          0.44210870       0.79001900       0.31139500
   136  C          0.05789130       0.29001900       0.18860500
   137  H          0.55400000       0.13160000       0.69280000
   138  H          0.94600000       0.63160000       0.80720000
   139  H          0.44600000       0.86840000       0.30720000
   140  H          0.05400000       0.36840000       0.19280000
   141  C          0.42997120       0.27630900       0.67462500
   142  C          0.07002880       0.77630900       0.82537500
   143  C          0.57002880       0.72369100       0.32537500
   144  C          0.92997120       0.22369100       0.17462500
   145  C          0.19731120       0.33865100       0.65858500
   146  C          0.30268880       0.83865100       0.84141500
   147  C          0.80268880       0.66134900       0.34141500
   148  C          0.69731120       0.16134900       0.15858500
   149  H          0.09490000       0.33870000       0.65420000
   150  H          0.40510000       0.83870000       0.84580000
   151  H          0.90510000       0.66130000       0.34580000
   152  H          0.59490000       0.16130000       0.15420000
   153  Cl         0.85491300       0.19147300       0.71460200
   154  Cl         0.64508700       0.69147300       0.78539800
   155  Cl         0.14508700       0.80852700       0.28539800
   156  Cl         0.35491300       0.30852700       0.21460200
   157  N         -0.01074100       0.59378800       0.58899500
   158  N          0.51074100       0.09378800       0.91100500
   159  N          0.01074100       0.40621200       0.41100500
   160  N          0.48925900       0.90621200       0.08899500
   161  N          0.28436110       0.24377800       0.66803500
   162  N          0.21563890       0.74377800       0.83196500
   163  N          0.71563890       0.75622200       0.33196500
   164  N          0.78436110       0.25622200       0.16803500
   165  H          0.25320000       0.17530000       0.66960000
   166  H          0.24680000       0.67530000       0.83040000
   167  H          0.74680000       0.82470000       0.33040000
   168  H          0.75320000       0.32470000       0.16960000
   169  O          0.31073900       0.62894700       0.69280400
   170  O          0.18926100       0.12894700       0.80719600
   171  O          0.68926100       0.37105300       0.30719600
   172  O          0.81073900       0.87105300       0.19280400
   173  H          0.32480000       0.59830000       0.72840000
   174  H          0.17520000       0.09830000       0.77160000
   175  H          0.67520000       0.40170000       0.27160000
   176  H          0.82480000       0.90170000       0.22840000
   177  O          0.00493900       0.53885700       0.69499400
   178  O          0.49506100       0.03885700       0.80500600
   179  O         -0.00493900       0.46114300       0.30500600
   180  O          0.50493900       0.96114300       0.19499400
   181  C          0.36828140       0.89813110       0.66936700
   182  C          0.13171860       0.39813110       0.83063300
   183  C          0.63171860       0.10186890       0.33063300
   184  C          0.86828140       0.60186890       0.16936700
   185  H          0.40060000       0.94930000       0.63920000
   186  H          0.09940000       0.44930000       0.86080000
   187  H          0.59940000       0.05070000       0.36080000
   188  H          0.90060000       0.55070000       0.13920000
   189  H          0.38830000       0.82160000       0.65810000
   190  H          0.11170000       0.32160000       0.84190000
   191  H          0.61170000       0.17840000       0.34190000
   192  H          0.88830000       0.67840000       0.15810000
   193  H          0.42020000       0.91430000       0.71220000
   194  H          0.07980000       0.41430000       0.78780000
   195  H          0.57980000       0.08570000       0.28780000
   196  H          0.92020000       0.58570000       0.21220000
   197  C          0.11917160       0.91647120       0.58076700
   198  C          0.38082840       0.41647120       0.91923300
   199  C          0.88082840       0.08352880       0.41923300
   200  C          0.61917160       0.58352880       0.08076700
   201  H          0.01350000       0.92180000       0.56990000
   202  H          0.48650000       0.42180000       0.93010000
   203  H         -0.01350000       0.07820000       0.43010000
   204  H          0.51350000       0.57820000       0.06990000
   205  H          0.15150000       0.84780000       0.56310000
   206  H          0.34850000       0.34780000       0.93690000
   207  H          0.84850000       0.15220000       0.43690000
   208  H          0.65150000       0.65220000       0.06310000
   209  H          0.16300000       0.98040000       0.56320000
   210  H          0.33700000       0.48040000       0.93680000
   211  H          0.83700000       0.01960000       0.43680000
   212  H          0.66300000       0.51960000       0.06320000
   213  O          0.15251100       0.03702700       0.68657400
   214  O          0.34748900       0.53702700       0.81342600
   215  O          0.84748900       0.96297300       0.31342600
   216  O          0.65251100       0.46297300       0.18657400
   217  S          0.17430300       0.91525200       0.66674200
   218  S          0.32569700       0.41525200       0.83325800
   219  S          0.82569700       0.08474800       0.33325800
   220  S          0.67430300       0.58474800       0.16674200
