data_CECHIB
_symmetry_space_group_name_H-M    'P1'
_symmetry_Int_Tables_number       1
loop_
_symmetry_equiv_pos_site_id
_symmetry_equiv_pos_as_xyz
1 x,y,z
_cell_length_a                   8.1871
_cell_length_b                   10.6961
_cell_length_c                   10.9361
_cell_angle_alpha                109.981
_cell_angle_beta                 110.871
_cell_angle_gamma                96.341
loop_
_atom_site_label
_atom_site_type_symbol
_atom_site_fract_x
_atom_site_fract_y
_atom_site_fract_z
     1  Cl         0.16110000       0.65670000       0.36100000
     2  Cl         0.83890000       0.34330000       0.63900000
     3  Cl         0.19280000       0.01650000       0.29970000
     4  Cl         0.80720000      -0.01650000       0.70030000
     5  S          0.42690000       0.68420000       0.93890000
     6  S          0.57310000       0.31580000       0.06110000
     7  N          0.32620000       0.66210000       0.67120000
     8  N          0.67380000       0.33790000       0.32880000
     9  N          0.11990000       0.71060000       0.76670000
    10  N          0.88010000       0.28940000       0.23330000
    11  N          0.13170000       0.86620000       0.98410000
    12  N          0.86830000       0.13380000       0.01590000
    13  N          0.96910000       0.63800000       0.88550000
    14  N          0.03090000       0.36200000       0.11450000
    15  C          0.28630000       0.68520000       0.78380000
    16  C          0.71370000       0.31480000       0.21620000
    17  C          0.49770000       0.63640000       0.67280000
    18  C          0.50230000       0.36360000       0.32720000
    19  C          0.97060000       0.68140000       0.62770000
    20  C          0.02940000       0.31860000       0.37230000
    21  C          0.07560000       0.73890000       0.88560000
    22  C          0.92440000       0.26110000       0.11440000
    23  C          0.24620000       0.97980000       0.98300000
    24  C          0.75380000       0.02020000       0.01700000
    25  C          0.90730000       0.65410000      -0.00150000
    26  C          0.09270000       0.34590000       0.00150000
    27  H          0.25100000       0.66800000       0.59100000
    28  H          0.74900000       0.33200000       0.40900000
    29  H          0.11300000       0.88400000       0.06000000
    30  H          0.88700000       0.11600000       0.94000000
    31  H          0.94100000       0.55500000       0.81600000
    32  H          0.05900000       0.44500000       0.18400000
    33  H          0.51700000       0.55500000       0.69200000
    34  H          0.48300000       0.44500000       0.30800000
    35  H          0.49900000       0.63500000       0.58200000
    36  H          0.50100000       0.36500000       0.41800000
    37  H          0.60100000       0.71500000       0.74700000
    38  H          0.39900000       0.28500000       0.25300000
    39  H          0.88300000       0.73200000       0.65000000
    40  H          0.11700000       0.26800000       0.35000000
    41  H          0.01700000       0.71700000       0.57200000
    42  H         -0.01700000       0.28300000       0.42800000
    43  H          0.90700000       0.58800000       0.58300000
    44  H          0.09300000       0.41200000       0.41700000
    45  H          0.35400000       0.96300000       0.98300000
    46  H          0.64600000       0.03700000       0.01700000
    47  H          0.18900000       0.00200000       0.89500000
    48  H          0.81100000      -0.00200000       0.10500000
    49  H          0.27000000       0.06100000       0.05800000
    50  H          0.73000000       0.93900000       0.94200000
    51  H          0.84000000       0.72400000       0.00600000
    52  H          0.16000000       0.27600000      -0.00600000
    53  H          0.83300000       0.57100000       0.97600000
    54  H          0.16700000       0.42900000       0.02400000
    55  H          0.00900000       0.68400000       0.09500000
    56  H         -0.00900000       0.31600000       0.90500000
    57  N          0.49940000       0.87230000       0.32540000
    58  N          0.50060000       0.12770000       0.67460000
    59  C          0.52620000       0.74580000       0.29660000
    60  C          0.47380000       0.25420000       0.70340000
    61  C          0.68770000       0.72520000       0.29260000
    62  C          0.31230000       0.27480000       0.70740000
    63  C          0.81970000       0.83530000       0.31900000
    64  C          0.18030000       0.16470000       0.68100000
    65  C          0.78820000       0.96520000       0.34980000
    66  C          0.21180000       0.03480000       0.65020000
    67  C          0.62500000      -0.01890000       0.35210000
    68  C          0.37500000       0.01890000       0.64790000
    69  H          0.39000000       0.88300000       0.31700000
    70  H          0.61000000       0.11700000       0.68300000
    71  H          0.42300000       0.67200000       0.27500000
    72  H          0.57700000       0.32800000       0.72500000
    73  H          0.70800000       0.63300000       0.27100000
    74  H          0.29200000       0.36700000       0.72900000
    75  H          0.93600000       0.82500000       0.32000000
    76  H          0.06400000       0.17500000       0.68000000
    77  H          0.88200000       0.04500000       0.37000000
    78  H          0.11800000       0.95500000       0.63000000
    79  H          0.59100000       0.07300000       0.37000000
    80  H          0.40900000       0.92700000       0.63000000
