data_CECQUZ
_symmetry_space_group_name_H-M    'P1'
_symmetry_Int_Tables_number       1
loop_
_symmetry_equiv_pos_site_id
_symmetry_equiv_pos_as_xyz
1 x,y,z
_cell_length_a                   8.01543
_cell_length_b                   9.39973
_cell_length_c                   11.85245
_cell_angle_alpha                71.6322
_cell_angle_beta                 88.0442
_cell_angle_gamma                86.4362
loop_
_atom_site_label
_atom_site_type_symbol
_atom_site_fract_x
_atom_site_fract_y
_atom_site_fract_z
     1  Cl         0.36765500       0.29834400       0.75146300
     2  Cl         0.63234500       0.70165600       0.24853700
     3  O          0.53239140       0.19825110       0.55901100
     4  O          0.46760860       0.80174890       0.44098900
     5  O          0.65796190       0.36418130       0.35386120
     6  O          0.34203810       0.63581870       0.64613880
     7  C          0.43694180       0.40934150       0.61299130
     8  C          0.56305820       0.59065850       0.38700870
     9  C          0.51411180       0.33752160       0.53636130
    10  C          0.48588820       0.66247840       0.46363870
    11  C          0.58468190       0.43474160       0.41596130
    12  C          0.41531810       0.56525840       0.58403870
    13  Cl         0.29218500       0.53590400       0.16058300
    14  Cl         0.70781500       0.46409600       0.83941700
    15  O          0.29788130       0.58424120       0.89875900
    16  O          0.70211870       0.41575880       0.10124100
    17  O          0.94636850       0.44513120       0.23787900
    18  O          0.05363150       0.55486880       0.76212100
    19  C          0.13201180       0.51595150       0.07445130
    20  C          0.86798820       0.48404850       0.92554870
    21  C          0.16212170       0.54331140       0.95054880
    22  C          0.83787830       0.45668860       0.04945120
    23  C          0.97797820       0.47394140       0.12534120
    24  C          0.02202180       0.52605860       0.87465880
    25  H          0.80340000       0.41860000       0.26350000
    26  H          0.19660000       0.58140000       0.73650000
    27  H          0.19660000       0.58260000       0.73650000
    28  H          0.80340000       0.41740000       0.26350000
    29  Cl         0.13189400       0.13193400       0.02046300
    30  Cl         0.86810600       0.86806600       0.97953700
    31  O          0.24451130       0.86587880       0.94833900
    32  O          0.75548870       0.13412120       0.05166100
    33  O          0.44558130       0.25605110       0.06558100
    34  O          0.55441870       0.74394890       0.93441900
    35  C          0.33378160       0.06172150       0.01355120
    36  C          0.66621840       0.93827850       0.98644880
    37  C          0.35807170       0.92914850       0.97497880
    38  C          0.64192830       0.07085150       0.02502120
    39  C          0.46510170       0.13213150       0.03474120
    40  C          0.53489830       0.86786850       0.96525880
    41  H          0.53630000       0.29320000       0.06891900
    42  H          0.46370000       0.70680000       0.93108100
    43  N          0.73639160       0.02885140       0.45787110
    44  N          0.26360840       0.97114860       0.54212890
    45  C          0.89562000       0.95479820       0.31235140
    46  C          0.10438000       0.04520180       0.68764860
    47  C          0.94820190       0.82077830       0.39923150
    48  C          0.05179810       0.17922170       0.60076850
    49  C          0.88792000       0.79535830       0.51449140
    50  C          0.11208000       0.20464170       0.48550860
    51  C          0.77982000       0.90004830       0.54404130
    52  C          0.22018000       0.09995170       0.45595870
    53  C          0.79052000       0.05692170       0.34426140
    54  C          0.20948000       0.94307830       0.65573860
    55  C          0.06392000       0.70758000       0.36642000
    56  C          0.93608000       0.29242000       0.63358000
    57  C          0.70792000       0.87498000       0.66618150
    58  C          0.29208000       0.12502000       0.33381850
    59  H          0.93020000       0.97380000       0.23511800
    60  H          0.06980000       0.02620000       0.76488200
    61  H          0.91820000       0.70380000       0.57411800
    62  H          0.08180000       0.29620000       0.42588200
    63  H          0.67330000       0.10230000       0.47620000
    64  H          0.32670000       0.89770000       0.52380000
    65  H          0.75420000       0.15220000       0.29061800
    66  H          0.24580000       0.84780000       0.70938200
    67  H          0.10330000       0.63070000       0.43520000
    68  H          0.89670000       0.36930000       0.56480000
    69  H          0.00830000       0.65870000       0.32520000
    70  H         -0.00830000       0.34130000       0.67480000
    71  H          0.15430000       0.75570000       0.31920000
    72  H          0.84570000       0.24430000       0.68080000
    73  H          0.78830000       0.82870000       0.72420000
    74  H          0.21170000       0.17130000       0.27580000
    75  H          0.61330000       0.81170000       0.67820000
    76  H          0.38670000       0.18830000       0.32180000
    77  H          0.67130000       0.97070000       0.68020000
    78  H          0.32870000       0.02930000       0.31980000
