data_CECYBR
_symmetry_space_group_name_H-M    'P1'
_symmetry_Int_Tables_number       1
loop_
_symmetry_equiv_pos_site_id
_symmetry_equiv_pos_as_xyz
1 x,y,z
_cell_length_a                   9.4085
_cell_length_b                   16.3429
_cell_length_c                   8.9196
_cell_angle_alpha                101.474
_cell_angle_beta                 91.254
_cell_angle_gamma                79.454
loop_
_atom_site_label
_atom_site_type_symbol
_atom_site_fract_x
_atom_site_fract_y
_atom_site_fract_z
     1  Br         0.84832000       0.84200000      -0.00475000
     2  Br         0.15168000       0.15800000       0.00475000
     3  Cl         0.08297000       0.37081000       0.44849000
     4  Cl         0.91703000       0.62919000       0.55151000
     5  Cl         0.29975000       0.46464000       0.22178000
     6  Cl         0.70025000       0.53536000       0.77822000
     7  C          0.82270000       0.04450000       0.46820000
     8  C          0.17730000       0.95550000       0.53180000
     9  C          0.00140000       0.29540000       0.51300000
    10  C         -0.00140000       0.70460000       0.48700000
    11  C          0.97130000       0.22620000       0.40660000
    12  C          0.02870000       0.77380000       0.59340000
    13  C          0.49690000       0.66330000       0.34630000
    14  C          0.50310000       0.33670000       0.65370000
    15  C          0.44690000       0.59380000       0.25690000
    16  C          0.55310000       0.40620000       0.74310000
    17  C          0.36810000       0.54990000       0.33060000
    18  C          0.63190000       0.45010000       0.66940000
    19  C          0.33790000       0.57180000       0.48660000
    20  C          0.66210000       0.42820000       0.51340000
    21  C          0.38920000       0.63920000       0.57600000
    22  C          0.61080000       0.36080000       0.42400000
    23  C          0.47000000       0.68440000       0.50240000
    24  C          0.53000000       0.31560000       0.49760000
    25  C          0.90310000       0.06620000       0.21320000
    26  C          0.09690000       0.93380000       0.78680000
    27  C          0.77220000       0.10290000       0.12430000
    28  C          0.22780000       0.89710000       0.87570000
    29  C          0.77910000       0.96800000       0.40500000
    30  C          0.22090000       0.03200000       0.59500000
    31  C          0.62130000       0.70430000       0.13430000
    32  C          0.37870000       0.29570000       0.86570000
    33  C          0.50630000       0.75170000       0.04530000
    34  C          0.49370000       0.24830000       0.95470000
    35  C          0.71650000       0.92210000       0.64640000
    36  C          0.28350000       0.07790000       0.35360000
    37  C          0.56980000       0.97880000       0.71910000
    38  C          0.43020000       0.02120000       0.28090000
    39  C          0.72280000       0.91230000       0.47690000
    40  C          0.27720000       0.08770000       0.52310000
    41  C          0.67920000       0.84300000       0.37780000
    42  C          0.32080000       0.15700000       0.62220000
    43  C          0.60760000       0.78080000       0.40800000
    44  C          0.39240000       0.21920000       0.59200000
    45  C          0.91150000       0.16820000       0.46240000
    46  C          0.08850000       0.83180000       0.53760000
    47  C          0.87980000       0.18110000       0.61760000
    48  C          0.12020000       0.81890000       0.38240000
    49  C          0.90800000       0.25170000       0.72420000
    50  C          0.09200000       0.74830000       0.27580000
    51  C          0.96830000       0.30900000       0.66740000
    52  C          0.03170000       0.69100000       0.33260000
    53  H          0.01700000       0.21220000       0.30290000
    54  H          0.98300000       0.78780000       0.69710000
    55  H          0.43990000       0.58100000       0.12720000
    56  H          0.56010000       0.41900000       0.87280000
    57  H          0.30870000       0.52960000       0.53190000
    58  H          0.69130000       0.47040000       0.46810000
    59  H          0.36000000       0.66000000       0.68000000
    60  H          0.64000000       0.34000000       0.32000000
    61  H          0.85760000       0.00950000       0.17150000
    62  H          0.14240000      -0.00950000       0.82850000
    63  H          0.01840000       0.05300000       0.19040000
    64  H          0.98160000       0.94700000       0.80960000
    65  H          0.68250000       0.07170000       0.13430000
    66  H          0.31750000       0.92830000       0.86570000
    67  H          0.74000000       0.17170000       0.17380000
    68  H          0.26000000       0.82830000       0.82620000
    69  H          0.80300000       0.09540000       0.00380000
    70  H          0.19700000       0.90460000      -0.00380000
    71  H          0.72570000       0.83570000       0.26590000
    72  H          0.27430000       0.16430000       0.73410000
    73  H          0.59200000       0.64530000       0.07030000
    74  H          0.40800000       0.35470000       0.92970000
    75  H          0.73920000       0.69920000       0.12810000
    76  H          0.26080000       0.30080000       0.87190000
    77  H          0.53960000       0.73730000       0.92310000
    78  H          0.46040000       0.26270000       0.07690000
    79  H          0.40500000       0.73430000       0.05910000
    80  H          0.59500000       0.26570000       0.94090000
    81  H          0.50080000       0.82050000       0.08940000
    82  H          0.49920000       0.17950000       0.91060000
    83  H          0.75880000       0.97930000       0.70650000
    84  H          0.24120000       0.02070000       0.29350000
    85  H          0.48850000       0.93830000       0.72030000
    86  H          0.51150000       0.06170000       0.27970000
    87  H          0.58630000       0.00770000       0.84450000
    88  H          0.41370000      -0.00770000       0.15550000
    89  H          0.53280000       0.02790000       0.65930000
    90  H          0.46720000       0.97210000       0.34070000
    91  H          0.81170000       0.94410000       0.30060000
    92  H          0.18830000       0.05590000       0.69940000
    93  H          0.90090000       0.25380000       0.83830000
    94  H          0.09910000       0.74620000       0.16170000
    95  H          0.97470000       0.36730000       0.74580000
    96  H          0.02530000       0.63270000       0.25420000
    97  N          0.87860000       0.09110000       0.38090000
    98  N          0.12140000       0.90890000       0.61910000
    99  N          0.57790000       0.71560000       0.29790000
   100  N          0.42210000       0.28440000       0.70210000
   101  S          0.80641000       0.09678000       0.65717000
   102  S          0.19359000       0.90322000       0.34283000
   103  S          0.53949000       0.77351000       0.58439000
   104  S          0.46051000       0.22649000       0.41561000
   105  C          0.13970000       0.52030000       0.84520000
   106  C          0.86030000       0.47970000       0.15480000
   107  C          0.10330000       0.61390000       0.89510000
   108  C          0.89670000       0.38610000       0.10490000
   109  H          0.94610000       0.70660000       0.94620000
   110  H          0.05390000       0.29340000       0.05380000
   111  H          0.12620000       0.50100000       0.72040000
   112  H          0.87380000       0.49900000       0.27960000
   113  H          0.25370000       0.49750000       0.87160000
   114  H          0.74630000       0.50250000       0.12840000
   115  H          0.07130000       0.49000000       0.90530000
   116  H          0.92870000       0.51000000       0.09470000
   117  O          0.18580000       0.66210000       0.88760000
   118  O          0.81420000       0.33790000       0.11240000
   119  O          0.96720000       0.64320000       0.94000000
   120  O          0.03280000       0.35680000       0.06000000
