data_CEHFII
_symmetry_space_group_name_H-M    'P1'
_symmetry_Int_Tables_number       1
loop_
_symmetry_equiv_pos_site_id
_symmetry_equiv_pos_as_xyz
1 x,y,z
_cell_length_a                   10.534501
_cell_length_b                   9.903801
_cell_length_c                   12.743701
_cell_angle_alpha                90.0
_cell_angle_beta                 104.11654
_cell_angle_gamma                90.0
loop_
_atom_site_label
_atom_site_type_symbol
_atom_site_fract_x
_atom_site_fract_y
_atom_site_fract_z
     1  Br         0.79259400       0.84783900       0.00890200
     2  Br         0.20740600       0.34783900      -0.00890200
     3  O          0.69493000       0.61493000       0.14302000
     4  O          0.30507000       0.11493000       0.85698000
     5  O          0.44902000       0.43083000       0.17922000
     6  O          0.55098000       0.93083000       0.82078000
     7  C          0.61883000       0.48693000       0.58883000
     8  C          0.38117000      -0.01307000       0.41117000
     9  C          0.65403000       0.56313000       0.41703000
    10  C          0.34597000       0.06313000       0.58297000
    11  C          0.67123000       0.80473000       0.38403000
    12  C          0.32877000       0.30473000       0.61597000
    13  C          0.66993000       0.53633000       0.31113000
    14  C          0.33007000       0.03633000       0.68887000
    15  C          0.77563000       0.17943000       0.24983000
    16  C          0.22437000       0.67943000       0.75017000
    17  C          0.63663000       0.45863000       0.48793000
    18  C          0.36337000       0.95863000       0.51207000
    19  C          0.65703000       0.13713000       0.17623000
    20  C          0.34297000       0.63713000       0.82377000
    21  C          0.90173000       0.35804000       0.35963000
    22  C          0.09827000       0.85804000       0.64037000
    23  C          0.55423000       0.34804000       0.20002000
    24  C          0.44577000       0.84804000       0.79998000
    25  C          0.55023000       0.21913000       0.15243000
    26  C          0.44977000       0.71913000       0.84757000
    27  C          0.68513000       0.77803000       0.28273000
    28  C          0.31487000       0.27803000       0.71727000
    29  C          0.78083000       0.31243000       0.29363000
    30  C          0.21917000       0.81243000       0.70637000
    31  C          0.61843000       0.62153000       0.62393000
    32  C          0.38157000       0.12153000       0.37607000
    33  C          0.65413000       0.69973000       0.45423000
    34  C          0.34587000       0.19973000       0.54577000
    35  C          0.68423000       0.64263000       0.24563000
    36  C          0.31577000       0.14263000       0.75437000
    37  C          0.88973000       0.09884000       0.27404000
    38  C          0.11027000       0.59884000       0.72596000
    39  C          0.63633000       0.72453000       0.55893000
    40  C          0.36367000       0.22453000       0.44107000
    41  C          0.66793000       0.39533000       0.26953000
    42  C          0.33207000       0.89533000       0.73047000
    43  C          0.00983000       0.27814000       0.37984000
    44  C         -0.00983000       0.77814000       0.62016000
    45  C          0.00354000       0.14514000       0.33794000
    46  C         -0.00354000       0.64514000       0.66206000
    47  H          0.60550000       0.41520000       0.63440000
    48  H          0.39450000       0.91520000       0.36560000
    49  H          0.67230000       0.89600000       0.40780000
    50  H          0.32770000       0.39600000       0.59220000
    51  H          0.63770000       0.36790000       0.46500000
    52  H          0.36230000       0.86790000       0.53500000
    53  H          0.65340000       0.05110000       0.14430000
    54  H          0.34660000       0.55110000       0.85570000
    55  H          0.90670000       0.44570000       0.39010000
    56  H          0.09330000       0.94570000       0.60990000
    57  H          0.47070000       0.19050000       0.10350000
    58  H          0.52930000       0.69050000       0.89650000
    59  H          0.69590000       0.84900000       0.23430000
    60  H          0.30410000       0.34900000       0.76570000
    61  H          0.60630000       0.64060000       0.69390000
    62  H          0.39370000       0.14060000       0.30610000
    63  H          0.88540000       0.01050000       0.24390000
    64  H          0.11460000       0.51050000       0.75610000
    65  H          0.63610000       0.81520000       0.58290000
    66  H          0.36390000       0.31520000       0.41710000
    67  H          0.09060000       0.31030000       0.42280000
    68  H          0.90940000       0.81030000       0.57720000
    69  H          0.07900000       0.08970000       0.35540000
    70  H          0.92100000       0.58970000       0.64460000
    71  H          0.38720000       0.39820000       0.13040000
    72  H          0.61280000       0.89820000       0.86960000
    73  H          0.71910000       0.68060000       0.11100000
    74  H          0.28090000       0.18060000       0.88900000
    75  C          0.05763000       0.72363000       0.26233000
    76  C          0.94237000       0.22363000       0.73767000
    77  C          0.07253000       0.69784000       0.37073000
    78  C          0.92747000       0.19784000       0.62927000
    79  C          0.14236000       0.97094000       0.12214000
    80  C          0.85764000       0.47094000       0.87786000
    81  C          0.27634000       0.64294000       0.27945000
    82  C          0.72366000       0.14294000       0.72055000
    83  C          0.18704000       0.64694000       0.43394000
    84  C          0.81296000       0.14694000       0.56606000
    85  C          0.28874000       0.62004000       0.38864000
    86  C          0.71126000       0.12004000       0.61136000
    87  C          0.13925000       0.72054000       0.09514000
    88  C          0.86075000       0.22054000       0.90486000
    89  C          0.16024000       0.69803000       0.21293000
    90  C          0.83976000       0.19803000       0.78707000
    91  N          0.18944000       0.85635000       0.06372000
    92  N          0.81056000       0.35635000       0.93628000
    93  C          0.33546000       0.85929000       0.08775000
    94  C          0.66454000       0.35929000       0.91225000
    95  C          0.12928000       0.87588000       0.94297000
    96  C          0.87072000       0.37588000       0.05703000
    97  H          0.97870000       0.75950000       0.21960000
    98  H          0.02130000       0.25950000       0.78040000
    99  H          0.00210000       0.71510000       0.40270000
   100  H         -0.00210000       0.21510000       0.59730000
   101  H          0.16660000       0.05570000       0.09340000
   102  H          0.83340000       0.55570000       0.90660000
   103  H          0.18190000       0.96460000       0.19960000
   104  H          0.81810000       0.46460000       0.80040000
   105  H          0.04600000       0.96210000       0.10780000
   106  H          0.95400000       0.46210000       0.89220000
   107  H          0.34510000       0.62210000       0.24700000
   108  H          0.65490000       0.12210000       0.75300000
   109  H          0.19650000       0.62980000       0.50920000
   110  H          0.80350000       0.12980000       0.49080000
   111  H          0.36820000       0.58500000       0.43100000
   112  H          0.63180000       0.08500000       0.56900000
   113  H          0.18380000       0.64760000       0.06520000
   114  H          0.81620000       0.14760000       0.93480000
   115  H          0.04390000       0.71980000       0.06250000
   116  H          0.95610000       0.21980000       0.93750000
   117  H          0.36130000       0.78760000       0.04510000
   118  H          0.63870000       0.28760000       0.95490000
   119  H          0.36280000       0.94660000       0.06690000
   120  H          0.63720000       0.44660000       0.93310000
   121  H          0.36960000       0.84340000       0.16550000
   122  H          0.63040000       0.34340000       0.83450000
   123  H          0.15530000       0.79970000       0.90640000
   124  H          0.84470000       0.29970000       0.09360000
   125  H          0.16390000       0.96010000       0.92260000
   126  H          0.83610000       0.46010000       0.07740000
   127  H          0.03550000       0.87850000       0.93430000
   128  H          0.96450000       0.37850000       0.06570000
