data_CEHYIB
_symmetry_space_group_name_H-M    'P1'
_symmetry_Int_Tables_number       1
loop_
_symmetry_equiv_pos_site_id
_symmetry_equiv_pos_as_xyz
1 x,y,z
_cell_length_a                   7.81294
_cell_length_b                   7.87773
_cell_length_c                   20.16201
_cell_angle_alpha                79.6004
_cell_angle_beta                 84.2284
_cell_angle_gamma                69.6214
loop_
_atom_site_label
_atom_site_type_symbol
_atom_site_fract_x
_atom_site_fract_y
_atom_site_fract_z
     1  S          0.08674500       0.74135500       0.59069200
     2  S          0.91325500       0.25864500       0.40930800
     3  S          0.79838400       0.71019700       0.69532200
     4  S          0.20161600       0.28980300       0.30467800
     5  O          0.47170160       0.39329160       0.69748600
     6  O          0.52829840       0.60670840       0.30251400
     7  O          0.24665150       0.63621150       0.81371500
     8  O          0.75334850       0.36378850       0.18628500
     9  O          0.13635180       0.44205170       0.88609500
    10  O          0.86364820       0.55794830       0.11390500
    11  H          0.15946200       0.49356100       0.91539700
    12  H          0.84053800       0.50643900       0.08460300
    13  N          0.15901170       0.52710180       0.70435600
    14  N          0.84098830       0.47289820       0.29564400
    15  C          0.62452000       0.96022000       0.37659800
    16  C          0.37548000       0.03978000       0.62340200
    17  H          0.49834300       0.01587600       0.38758300
    18  H          0.50165700      -0.01587600       0.61241700
    19  C          0.70042000       0.02622000       0.31646800
    20  C          0.29958000       0.97378000       0.68353200
    21  H          0.62540800       0.12620300       0.28669800
    22  H          0.37459200       0.87379700       0.71330200
    23  C          0.88422000       0.94802000       0.29944800
    24  C          0.11578000       0.05198000       0.70055200
    25  H          0.93470000      -0.00659500       0.25810000
    26  H          0.06530000       0.00659500       0.74190000
    27  C         -0.00568000       0.80272000       0.34325900
    28  C          0.00568000       0.19728000       0.65674100
    29  H          0.12040900       0.74832800       0.33195400
    30  H          0.87959100       0.25167200       0.66804600
    31  C          0.91942000       0.73702000       0.40355800
    32  C          0.08058000       0.26298000       0.59644200
    33  H         -0.00390400       0.63926500       0.43360400
    34  H          0.00390400       0.36073500       0.56639600
    35  C          0.73242000       0.81232000       0.42108800
    36  C          0.26758000       0.18768000       0.57891200
    37  C          0.66352000       0.73122000       0.48486800
    38  C          0.33648000       0.26878000       0.51513200
    39  H          0.75290200       0.66960700       0.51769900
    40  H          0.24709800       0.33039300       0.48230100
    41  C          0.49212000       0.73042000       0.50439700
    42  C          0.50788000       0.26958000       0.49560300
    43  C          0.32922000       0.81532000       0.46060800
    44  C          0.67078000       0.18468000       0.53939200
    45  H          0.26247000       0.94009400       0.46962400
    46  H          0.73753000       0.05990600       0.53037600
    47  H          0.24858200       0.74167300       0.47068800
    48  H          0.75141800       0.25832700       0.52931200
    49  H          0.37057000       0.81927800       0.41299900
    50  H          0.62943000       0.18072200       0.58700100
    51  C          0.47052000       0.63072000       0.57069700
    52  C          0.52948000       0.36928000       0.42930300
    53  H          0.58139600       0.56129200       0.59245700
    54  H          0.41860400       0.43870800       0.40754300
    55  C          0.31752000       0.62102000       0.60641700
    56  C          0.68248000       0.37898000       0.39358300
    57  C          0.33252000       0.50112000       0.67265700
    58  C          0.66748000       0.49888000       0.32734300
    59  C          0.01412000       0.65082000       0.66964800
    60  C          0.98588000       0.34918000       0.33035200
    61  C          0.13932000       0.42742000       0.77127700
    62  C          0.86068000       0.57258000       0.22872300
    63  H          0.22418900       0.29949500       0.77404700
    64  H          0.77581100       0.70050500       0.22595300
    65  H          0.01325900       0.42406800       0.77836700
    66  H          0.98674100       0.57593200       0.22163300
    67  C          0.17882000       0.51442000       0.82672700
    68  C          0.82118000       0.48558000       0.17327300
    69  O          0.81318160       0.42353160       0.01867500
    70  O          0.18681840       0.57646840       0.98132500
    71  N          0.65970170       0.48235170       0.91939600
    72  N          0.34029830       0.51764830       0.08060400
    73  N          0.54038170       0.63592170       0.88200600
    74  N          0.45961830       0.36407830       0.11799400
    75  H          0.49812500       0.64001600       0.84267800
    76  H          0.50187500       0.35998400       0.15732200
    77  C          0.81792000       0.15132000       0.93688800
    78  C          0.18208000       0.84868000       0.06311200
    79  H          0.85013700       0.15672000       0.98045200
    80  H          0.14986300       0.84328000       0.01954800
    81  C          0.86752000      -0.01572000       0.91404800
    82  C          0.13248000       0.01572000       0.08595200
    83  H          0.93449500       0.87537300       0.94214200
    84  H          0.06550500       0.12462700       0.05785800
    85  C          0.82052000       0.97408000       0.85065800
    86  C          0.17948000       0.02592000       0.14934200
    87  H          0.85361700       0.85889700       0.83559800
    88  H          0.14638300       0.14110300       0.16440200
    89  C          0.72502000       0.13342000       0.80962800
    90  C          0.27498000       0.86658000       0.19037200
    91  H          0.69254800       0.12716000       0.76619600
    92  H          0.30745200       0.87284000       0.23380400
    93  C          0.67592000       0.30292000       0.83120700
    94  C          0.32408000       0.69708000       0.16879300
    95  H          0.61262900       0.41195400       0.80234100
    96  H          0.38737100       0.58804600       0.19765900
    97  C          0.72043190       0.31142000       0.89546700
    98  C          0.27956810       0.68858000       0.10453300
    99  C          0.70262000       0.53452000       0.97555700
   100  C          0.29738000       0.46548000       0.02444300
   101  C          0.60132000       0.72352000       0.97291800
   102  C          0.39868000       0.27648000       0.02708200
   103  H          0.60327900       0.79845200       0.00462500
   104  H          0.39672100       0.20154800      -0.00462500
   105  C          0.50022000       0.77862000       0.91659800
   106  C          0.49978000       0.22138000       0.08340200
   107  C          0.36412000       0.95822000       0.88957900
   108  C          0.63588000       0.04178000       0.11042100
   109  H          0.26939400       0.93727800       0.86704100
   110  H          0.73060600       0.06272200       0.13295900
   111  H          0.42547000       0.02898000       0.85710700
   112  H          0.57453000       0.97102000       0.14289300
   113  H          0.30784500       0.02654500       0.92677800
   114  H          0.69215500       0.97345500       0.07322200
