data_CEJDON
_symmetry_space_group_name_H-M    'P1'
_symmetry_Int_Tables_number       1
loop_
_symmetry_equiv_pos_site_id
_symmetry_equiv_pos_as_xyz
1 x,y,z
_cell_length_a                   9.09863
_cell_length_b                   10.87063
_cell_length_c                   12.23513
_cell_angle_alpha                102.018418
_cell_angle_beta                 93.351118
_cell_angle_gamma                91.183819
loop_
_atom_site_label
_atom_site_type_symbol
_atom_site_fract_x
_atom_site_fract_y
_atom_site_fract_z
     1  F          0.74053100       0.93006800       0.19893800
     2  F          0.25946900       0.06993200       0.80106200
     3  F          0.63491100       0.94070700      -0.01040700
     4  F          0.36508900       0.05929300       0.01040700
     5  F          0.62255100       0.76363700       0.30730700
     6  F          0.37744900       0.23636300       0.69269300
     7  F          0.40318100       0.78743800       0.88978400
     8  F          0.59681900       0.21256200       0.11021600
     9  F          0.29066900       0.61336700      -0.00453600
    10  F          0.70933100       0.38663300       0.00453600
    11  F          0.63640900       0.47021700       0.45549600
    12  F          0.36359100       0.52978300       0.54450400
    13  F          0.75210900       0.28311800       0.54198700
    14  F          0.24789100       0.71688200       0.45801300
    15  F          0.64529100       0.04185800       0.46859700
    16  F          0.35470900       0.95814200       0.53140300
    17  F          0.41250100      -0.00763700       0.31420700
    18  F          0.58749900       0.00763700       0.68579300
    19  F          0.29315900       0.18058700       0.22965600
    20  F          0.70684100       0.81941300       0.77034400
    21  O          0.60871100       0.49348800       0.22989800
    22  O          0.39128900       0.50651200       0.77010200
    23  N          0.39415140       0.59319100       0.20694100
    24  N          0.60584860       0.40680900       0.79305900
    25  H          0.30011900       0.58811400       0.21021300
    26  H          0.69988100       0.41188600       0.78978700
    27  N          0.39731130       0.42628100       0.29402100
    28  N          0.60268870       0.57371900       0.70597900
    29  H          0.31031900       0.43231500       0.29141300
    30  H          0.68968100       0.56768500       0.70858700
    31  C          0.57985150       0.35295120       0.41894110
    32  C          0.42014850       0.64704880       0.58105890
    33  C          0.64041150       0.25726130       0.46391110
    34  C          0.35958850       0.74273870       0.53608890
    35  C          0.58480160       0.13579130       0.42826110
    36  C          0.41519840       0.86420870       0.57173890
    37  C          0.46674160       0.11059120       0.34997110
    38  C          0.53325840       0.88940880       0.65002890
    39  C          0.40665150       0.20714120       0.30615110
    40  C          0.59334850       0.79285880       0.69384890
    41  C          0.46215150       0.33015120       0.33862100
    42  C          0.53784850       0.66984880       0.66137900
    43  C          0.47664150       0.50330120       0.24275100
    44  C          0.52335850       0.49669880       0.75724900
    45  C          0.45787150       0.68038120       0.15173110
    46  C          0.54212850       0.31961880       0.84826890
    47  C          0.40347150       0.68982120       0.04546110
    48  C          0.59652850       0.31017880       0.95453890
    49  C          0.46048160       0.77749120      -0.00920110
    50  C          0.53951840       0.22250880       0.00920110
    51  C          0.57690160       0.85618120       0.04201120
    52  C          0.42309840       0.14381880       0.95798880
    53  C          0.63216160       0.84917120       0.14758120
    54  C          0.36783840       0.15082880       0.85241880
    55  C          0.57176160       0.76291120       0.20215110
    56  C          0.42823840       0.23708880       0.79784890
    57  O          0.11912100       0.51082800       0.25090800
    58  O          0.88087900       0.48917200       0.74909200
    59  N          0.90527870       0.41352100       0.28054100
    60  N          0.09472130       0.58647900       0.71945900
    61  H          0.81148100       0.40561400       0.26151300
    62  H          0.18851900       0.59438600       0.73848700
    63  N          0.89945870       0.57842110       0.19096100
    64  N          0.10054130       0.42157890       0.80903900
    65  H          0.81008100       0.56171400       0.18511300
    66  H          0.18991900       0.43828600       0.81488700
    67  C          0.05974160       0.76309120       0.19555120
    68  C          0.94025840       0.23690880       0.80444880
    69  H          0.09170000       0.76360000       0.27100000
    70  H          0.90830000       0.23640000       0.72900000
    71  C          0.95882850       0.67143120       0.13792110
    72  C          0.04117150       0.32856880       0.86207890
    73  C          0.91043840       0.67143130       0.02796110
    74  C          0.08956160       0.32856870       0.97203890
    75  H          0.84120000       0.60870000      -0.01120000
    76  H          0.15880000       0.39130000       0.01120000
    77  C          0.96364830       0.76355130       0.97545880
    78  C          0.03635170       0.23644870       0.02454120
    79  H          0.93000000       0.76420000       0.90060000
    80  H          0.07000000       0.23580000       0.09940000
    81  C          0.06592170       0.85457140       0.03241130
    82  C          0.93407830       0.14542860       0.96758870
    83  H          0.10310000       0.91700000      -0.00370000
    84  H          0.89690000       0.08300000       0.00370000
    85  C          0.11371170       0.85412130       0.14219130
    86  C          0.88628830       0.14587870       0.85780870
    87  H          0.18370000       0.91640000       0.18110000
    88  H          0.81630000       0.08360000       0.81890000
    89  C          0.97056850       0.32520120       0.33771110
    90  C          0.02943150       0.67479880       0.66228890
    91  C          0.07723150       0.36409130       0.42583110
    92  C          0.92276850       0.63590870       0.57416890
    93  H          0.10970000       0.44990000       0.44640000
    94  H          0.89030000       0.55010000       0.55360000
    95  C          0.13558160       0.27684140       0.48325120
    96  C          0.86441840       0.72315860       0.51674880
    97  H          0.20840000       0.30310000       0.54300000
    98  H          0.79160000       0.69690000       0.45700000
    99  C          0.08796160       0.15110140       0.45378120
   100  C          0.91203840       0.84889860       0.54621880
   101  H          0.12770000       0.09170000       0.49340000
   102  H          0.87230000       0.90830000       0.50660000
   103  C          0.98186830       0.11291130       0.36593120
   104  C          0.01813170       0.88708870       0.63406880
   105  H          0.94900000       0.02720000       0.34580000
   106  H          0.05100000       0.97280000       0.65420000
   107  C          0.92360840       0.19928130       0.30745110
   108  C          0.07639160       0.80071870       0.69254890
   109  H          0.85200000       0.17250000       0.24700000
   110  H          0.14800000       0.82750000       0.75300000
   111  C          0.98281860       0.50173120       0.24167100
   112  C          0.01718140       0.49826880       0.75832900
