data_CEMCEF
_symmetry_space_group_name_H-M    'P1'
_symmetry_Int_Tables_number       1
loop_
_symmetry_equiv_pos_site_id
_symmetry_equiv_pos_as_xyz
1 x,y,z
_cell_length_a                   13.1493
_cell_length_b                   11.690119
_cell_length_c                   17.2163
_cell_angle_alpha                90.0
_cell_angle_beta                 92.0847
_cell_angle_gamma                90.0
loop_
_atom_site_label
_atom_site_type_symbol
_atom_site_fract_x
_atom_site_fract_y
_atom_site_fract_z
     1  O          0.39262000       0.34332000       0.28109160
     2  O          0.10738000       0.84332000       0.21890840
     3  O          0.60738000       0.65668000       0.71890840
     4  O          0.89262000       0.15668000       0.78109160
     5  C          0.38973000       0.23574000       0.24842000
     6  C          0.11027000       0.73574000       0.25158000
     7  C          0.61027000       0.76426000       0.75158000
     8  C          0.88973000       0.26426000       0.74842000
     9  C          0.47573000       0.18723000       0.21792000
    10  C          0.02427000       0.68723000       0.28208000
    11  C          0.52427000       0.81277000       0.78208000
    12  C          0.97573000       0.31277000       0.71792000
    13  C          0.56943000       0.25353000       0.22052000
    14  C          0.93057000       0.75353000       0.27948000
    15  C          0.43057000       0.74647000       0.77948000
    16  C          0.06943000       0.24647000       0.72052000
    17  O          0.64592000       0.20292000       0.18611160
    18  O          0.85408000       0.70292000       0.31388840
    19  O          0.35408000       0.79708000       0.81388840
    20  O          0.14592000       0.29708000       0.68611160
    21  C          0.57343000       0.35813000       0.25492000
    22  C          0.92657000       0.85813000       0.24508000
    23  C          0.42657000       0.64187000       0.74508000
    24  C          0.07343000       0.14187000       0.75492000
    25  C          0.48283000       0.40614000       0.28602000
    26  C          0.01717000       0.90614000       0.21398000
    27  C          0.51717000       0.59386000       0.71398000
    28  C          0.98283000       0.09386000       0.78602000
    29  O          0.47462000       0.50003000       0.31630180
    30  O          0.02538000       0.00003000       0.18369820
    31  O          0.52538000       0.49997000       0.68369820
    32  O          0.97462000      -0.00003000       0.81630180
    33  C          0.66763000       0.43393000       0.25872000
    34  C          0.83237000       0.93393000       0.24128000
    35  C          0.33237000       0.56607000       0.74128000
    36  C          0.16763000       0.06607000       0.75872000
    37  C          0.70173000       0.47253000       0.17802000
    38  C          0.79827000       0.97253000       0.32198000
    39  C          0.29827000       0.52747000       0.82198000
    40  C          0.20173000       0.02747000       0.67802000
    41  C          0.63673000       0.47063000       0.11352000
    42  C          0.86327000       0.97063000       0.38648000
    43  C          0.36327000       0.52937000       0.88648000
    44  C          0.13673000       0.02937000       0.61352000
    45  C          0.66314000       0.51664000       0.04263000
    46  C          0.83686000       0.01664000       0.45737000
    47  C          0.33686000       0.48336000       0.95737000
    48  C          0.16314000       0.98336000       0.54263000
    49  C          0.75804000       0.56494000       0.03603000
    50  C          0.74196000       0.06494000       0.46397000
    51  C          0.24196000       0.43506000       0.96397000
    52  C          0.25804000       0.93506000       0.53603000
    53  O          0.79353000       0.61113000       0.96828000
    54  O          0.70647000       0.11113000       0.53172000
    55  O          0.20647000       0.38887000       0.03172000
    56  O          0.29353000       0.88887000       0.46828000
    57  C          0.72666000       0.61587000       0.90316000
    58  C          0.77334000       0.11587000       0.59684000
    59  C          0.27334000       0.38413000       0.09684000
    60  C          0.22666000       0.88413000       0.40316000
    61  C          0.82454000       0.56744000       0.09943000
    62  C          0.67546000       0.06744000       0.40057000
    63  C          0.17546000       0.43256000       0.90057000
    64  C          0.32454000       0.93256000       0.59943000
    65  C          0.79633000       0.52123000       0.16942000
    66  C          0.70367000       0.02123000       0.33058000
    67  C          0.20367000       0.47877000       0.83058000
    68  C          0.29633000       0.97877000       0.66942000
    69  C          0.75323000       0.39103000       0.31352000
    70  C          0.74677000       0.89103000       0.18648000
    71  C          0.24677000       0.60897000       0.68648000
    72  C          0.25323000       0.10897000       0.81352000
    73  C          0.82623000       0.31333000       0.29322000
    74  C          0.67377000       0.81333000       0.20678000
    75  C          0.17377000       0.68667000       0.70678000
    76  C          0.32623000       0.18667000       0.79322000
    77  O          0.82172000       0.26382000       0.22593160
    78  O          0.67828000       0.76382000       0.27406840
    79  O          0.17828000       0.73618000       0.77406840
    80  O          0.32172000       0.23618000       0.72593160
    81  C          0.91043000       0.28633000       0.34792000
    82  C          0.58957000       0.78633000       0.15208000
    83  C          0.08957000       0.71367000       0.65208000
    84  C          0.41043000       0.21367000       0.84792000
    85  C          0.98893000       0.21394000       0.33173000
    86  C          0.51107000       0.71394000       0.16827000
    87  C          0.01107000       0.78606000       0.66827000
    88  C          0.48893000       0.28606000       0.83173000
    89  C          0.06664000       0.19284000       0.38593000
    90  C          0.43336000       0.69284000       0.11407000
    91  C          0.93336000       0.80716000       0.61407000
    92  C          0.56664000       0.30716000       0.88593000
    93  C          0.06574000       0.24505000       0.45803000
    94  C          0.43426000       0.74505000       0.04197000
    95  C          0.93426000       0.75495000       0.54197000
    96  C          0.56574000       0.25495000       0.95803000
    97  C          0.98854000       0.31784000       0.47683000
    98  C          0.51146000       0.81784000       0.02317000
    99  C          0.01146000       0.68216000       0.52317000
   100  C          0.48854000       0.18216000       0.97683000
   101  C          0.91044000       0.33744000       0.42033000
   102  C          0.58956000       0.83744000       0.07967000
   103  C          0.08956000       0.66256000       0.57967000
   104  C          0.41044000       0.16256000       0.92033000
   105  O          0.83442000       0.40973000       0.44210170
   106  O          0.66558000       0.90973000       0.05789830
   107  O          0.16558000       0.59027000       0.55789830
   108  O          0.33442000       0.09027000       0.94210170
   109  C          0.75473000       0.43824000       0.39022000
   110  C          0.74527000       0.93824000       0.10978000
   111  C          0.24527000       0.56176000       0.60978000
   112  C          0.25473000       0.06176000       0.89022000
   113  O          0.69352000       0.50353000       0.41772170
   114  O          0.80648000       0.00353000       0.08227830
   115  O          0.30648000       0.49647000       0.58227830
   116  O          0.19352000      -0.00353000       0.91772170
   117  C          0.46694000       0.07844000       0.18533000
   118  C          0.03306000       0.57844000       0.31467000
   119  C          0.53306000       0.92156000       0.81467000
   120  C          0.96694000       0.42156000       0.68533000
   121  C          0.37455000       0.02254000       0.18323000
   122  C          0.12545000       0.52254000       0.31677000
   123  C          0.62545000       0.97746000       0.81677000
   124  C          0.87455000       0.47746000       0.68323000
   125  C          0.29024000       0.07325000       0.21443000
   126  C          0.20976000       0.57325000       0.28557000
   127  C          0.70976000       0.92675000       0.78557000
   128  C          0.79024000       0.42675000       0.71443000
   129  C          0.29724000       0.18044000       0.24773000
   130  C          0.20276000       0.68044000       0.25227000
   131  C          0.70276000       0.81956000       0.75227000
   132  C          0.79724000       0.31956000       0.74773000
   133  H          0.64490000       0.50470000       0.28320000
   134  H          0.85510000       0.00470000       0.21680000
   135  H          0.35510000       0.49530000       0.71680000
   136  H          0.14490000      -0.00470000       0.78320000
   137  H          0.70790000       0.53910000       0.88890000
   138  H          0.79210000       0.03910000       0.61110000
   139  H          0.29210000       0.46090000       0.11110000
   140  H          0.20790000       0.96090000       0.38890000
   141  H          0.75940000       0.65190000       0.86070000
   142  H          0.74060000       0.15190000       0.63930000
   143  H          0.24060000       0.34810000       0.13930000
   144  H          0.25940000       0.84810000       0.36070000
   145  H          0.66670000       0.65820000       0.91540000
   146  H          0.83330000       0.15820000       0.58460000
   147  H          0.33330000       0.34180000       0.08460000
   148  H          0.16670000       0.84180000       0.41540000
   149  H          0.36800000       0.94970000       0.16190000
   150  H          0.13200000       0.44970000       0.33810000
   151  H          0.63200000       0.05030000       0.83810000
   152  H          0.86800000       0.55030000       0.66190000
   153  H          0.22800000       0.03520000       0.21260000
   154  H          0.27200000       0.53520000       0.28740000
   155  H          0.77200000       0.96480000       0.78740000
   156  H          0.72800000       0.46480000       0.71260000
   157  H          0.24070000       0.21380000       0.26950000
   158  H          0.25930000       0.71380000       0.23050000
   159  H          0.75930000       0.78620000       0.73050000
   160  H          0.74070000       0.28620000       0.76950000
   161  H         -0.01030000       0.17920000       0.28310000
   162  H          0.51030000       0.67920000       0.21690000
   163  H          0.01030000       0.82080000       0.71690000
   164  H          0.48970000       0.32080000       0.78310000
   165  H          0.98740000       0.35480000       0.52590000
   166  H          0.51260000       0.85480000       0.97410000
   167  H          0.01260000       0.64520000       0.47410000
   168  H          0.48740000       0.14520000       0.02590000
   169  H          0.57170000       0.43650000       0.11840000
   170  H          0.92830000       0.93650000       0.38160000
   171  H          0.42830000       0.56350000       0.88160000
   172  H          0.07170000       0.06350000       0.61840000
   173  H          0.61660000       0.51520000      -0.00090000
   174  H          0.88340000       0.01520000       0.50090000
   175  H          0.38340000       0.48480000       0.00090000
   176  H          0.11660000       0.98480000       0.49910000
   177  H          0.12060000       0.14300000       0.37330000
   178  H          0.37940000       0.64300000       0.12670000
   179  H          0.87940000       0.85700000       0.62670000
   180  H          0.62060000       0.35700000       0.87330000
   181  H          0.52490000       0.04330000       0.16410000
   182  H          0.97510000       0.54330000       0.33590000
   183  H          0.47510000       0.95670000       0.83590000
   184  H          0.02490000       0.45670000       0.66410000
   185  H          0.89000000       0.60140000       0.09480000
   186  H          0.61000000       0.10140000       0.40520000
   187  H          0.11000000       0.39860000       0.90520000
   188  H          0.39000000       0.89860000       0.59480000
   189  H          0.84280000       0.52290000       0.21290000
   190  H          0.65720000       0.02290000       0.28710000
   191  H          0.15720000       0.47710000       0.78710000
   192  H          0.34280000       0.97710000       0.71290000
   193  H          0.11910000       0.22960000       0.49520000
   194  H          0.38090000       0.72960000       0.00480000
   195  H          0.88090000       0.77040000       0.50480000
   196  H          0.61910000       0.27040000      -0.00480000
   197  H          0.86590000       0.21850000       0.21590000
   198  H          0.63410000       0.71850000       0.28410000
   199  H          0.13410000       0.78150000       0.78410000
   200  H          0.36590000       0.28150000       0.71590000
   201  H          0.69980000       0.23630000       0.18530000
   202  H          0.80020000       0.73630000       0.31470000
   203  H          0.30020000       0.76370000       0.81470000
   204  H          0.19980000       0.26370000       0.68530000
   205  O          0.46933000       0.25093000       0.44272000
   206  O          0.03067000       0.75093000       0.05728000
   207  O          0.53067000       0.74907000       0.55728000
   208  O          0.96933000       0.24907000       0.94272000
   209  C          0.53734000       0.31334000       0.49183000
   210  C          0.96266000       0.81334000       0.00817000
   211  C          0.46266000       0.68666000       0.50817000
   212  C          0.03734000       0.18666000       0.99183000
   213  C          0.52544000       0.28014000       0.57613000
   214  C          0.97456000       0.78014000       0.92387000
   215  C          0.47456000       0.71986000       0.42387000
   216  C          0.02544000       0.21986000       0.07613000
   217  N          0.42083000       0.30233000       0.59852000
   218  N          0.07917000       0.80233000       0.90148000
   219  N          0.57917000       0.69767000       0.40148000
   220  N          0.92083000       0.19767000       0.09852000
   221  C          0.34814000       0.24555000       0.54303000
   222  C          0.15186000       0.74555000       0.95697000
   223  C          0.65186000       0.75445000       0.45697000
   224  C          0.84814000       0.25445000       0.04303000
   225  C          0.36895000       0.27766000       0.46133000
   226  C          0.13105000       0.77766000       0.03867000
   227  C          0.63105000       0.72234000       0.53867000
   228  C          0.86895000       0.22234000       0.96133000
   229  H          0.52430000       0.39440000       0.48500000
   230  H          0.97570000       0.89440000       0.01500000
   231  H          0.47570000       0.60560000       0.51500000
   232  H          0.02430000       0.10560000       0.98500000
   233  H          0.60640000       0.29820000       0.47670000
   234  H          0.89360000       0.79820000       0.02330000
   235  H          0.39360000       0.70180000       0.52330000
   236  H          0.10640000       0.20180000       0.97670000
   237  H          0.54120000       0.19980000       0.58410000
   238  H          0.95880000       0.69980000       0.91590000
   239  H          0.45880000       0.80020000       0.41590000
   240  H          0.04120000       0.30020000       0.08410000
   241  H          0.57220000       0.32520000       0.60830000
   242  H          0.92780000       0.82520000       0.89170000
   243  H          0.42780000       0.67480000       0.39170000
   244  H          0.07220000       0.17480000       0.10830000
   245  H          0.27900000       0.26820000       0.55360000
   246  H          0.22100000       0.76820000       0.94640000
   247  H          0.72100000       0.73180000       0.44640000
   248  H          0.77900000       0.23180000       0.05360000
   249  H          0.35340000       0.16330000       0.54970000
   250  H          0.14660000       0.66330000       0.95030000
   251  H          0.64660000       0.83670000       0.45030000
   252  H          0.85340000       0.33670000       0.04970000
   253  H          0.32220000       0.23750000       0.42590000
   254  H          0.17780000       0.73750000       0.07410000
   255  H          0.67780000       0.76250000       0.57410000
   256  H          0.82220000       0.26250000       0.92590000
   257  H          0.35770000       0.35900000       0.45420000
   258  H          0.14230000       0.85900000       0.04580000
   259  H          0.64230000       0.64100000       0.54580000
   260  H          0.85770000       0.14100000       0.95420000
   261  H          0.39660000       0.37750000       0.59370000
   262  H          0.10340000       0.87750000       0.90630000
   263  H          0.60340000       0.62250000       0.40630000
   264  H          0.89660000       0.12250000       0.09370000
