data_CEMGOU
_symmetry_space_group_name_H-M    'P1'
_symmetry_Int_Tables_number       1
loop_
_symmetry_equiv_pos_site_id
_symmetry_equiv_pos_as_xyz
1 x,y,z
_cell_length_a                   5.63488
_cell_length_b                   19.4853
_cell_length_c                   11.531617
_cell_angle_alpha                90.0
_cell_angle_beta                 101.0132
_cell_angle_gamma                90.0
loop_
_atom_site_label
_atom_site_type_symbol
_atom_site_fract_x
_atom_site_fract_y
_atom_site_fract_z
     1  O          0.34932000       0.17693700       0.15441110
     2  O          0.15068000       0.67693700       0.34558890
     3  O          0.65068000       0.82306300       0.84558890
     4  O          0.84932000       0.32306300       0.65441110
     5  O          0.87717000       0.05982700       0.07567120
     6  O          0.62283000       0.55982700       0.42432880
     7  O          0.12283000       0.94017300       0.92432880
     8  O          0.37717000       0.44017300       0.57567120
     9  O          0.19923000       0.13443800       0.97721890
    10  O          0.30077000       0.63443800       0.52278110
    11  O          0.80077000       0.86556200       0.02278110
    12  O          0.69923000       0.36556200       0.47721890
    13  O         -0.00863000       0.12043800       0.23990120
    14  O          0.50863000       0.62043800       0.26009880
    15  O          0.00863000       0.87956200       0.76009880
    16  O          0.49137000       0.37956200       0.73990120
    17  C          0.20053000       0.14176100       0.08431150
    18  C          0.29947000       0.64176100       0.41568850
    19  C          0.79947000       0.85823900       0.91568850
    20  C          0.70053000       0.35823900       0.58431150
    21  C          0.00323000       0.10279900       0.13378150
    22  C          0.49677000       0.60279900       0.36621850
    23  C         -0.00323000       0.89720100       0.86621850
    24  C          0.50323000       0.39720100       0.63378150
    25  H          0.92040000       0.08081700       0.27730000
    26  H          0.57960000       0.58081700       0.22270000
    27  H          0.07960000       0.91918300       0.72270000
    28  H          0.42040000       0.41918300       0.77730000
    29  N          0.30333000       0.21851800       0.38438130
    30  N          0.19667000       0.71851800       0.11561870
    31  N          0.69667000       0.78148200       0.61561870
    32  N          0.80333000       0.28148200       0.88438130
    33  N          0.16353000       0.26606800       0.52503130
    34  N          0.33647000       0.76606800       0.97496870
    35  N          0.83647000       0.73393200       0.47496870
    36  N          0.66353000       0.23393200       0.02503130
    37  N          0.88653000       0.13248800       0.70511140
    38  N          0.61347000       0.63248800       0.79488860
    39  N          0.11347000       0.86751200       0.29488860
    40  N          0.38653000       0.36751200       0.20511140
    41  N          0.55003000       0.07199800       0.66383140
    42  N          0.94997000       0.57199800       0.83616860
    43  N          0.44997000       0.92800200       0.33616860
    44  N          0.05003000       0.42800200       0.16383140
    45  N          0.35813000       0.22683800       0.57783120
    46  N          0.14187000       0.72683800       0.92216880
    47  N          0.64187000       0.77316200       0.42216880
    48  N          0.85813000       0.27316200       0.07783120
    49  C          0.12763000       0.25991900       0.40805140
    50  C          0.37237000       0.75991900       0.09194860
    51  C          0.87237000       0.74008100       0.59194860
    52  C          0.62763000       0.24008100       0.90805140
    53  N          0.85613000       0.09183800       0.79986140
    54  N          0.64387000       0.59183800       0.70013860
    55  N          0.14387000       0.90816200       0.20013860
    56  N          0.35613000       0.40816200       0.29986140
    57  N          0.57184000       0.01319100       0.84810170
    58  N          0.92816000       0.51319100       0.65189830
    59  N          0.42816000       0.98680900       0.15189830
    60  N          0.07184000       0.48680900       0.34810170
    61  C          0.43683000       0.19874900       0.49065140
    62  C          0.06317000       0.69874900       0.00934860
    63  C          0.56317000       0.80125100       0.50934860
    64  C          0.93683000       0.30125100      -0.00934860
    65  C          0.69863000       0.11876900       0.62459160
    66  C          0.80137000       0.61876900       0.87540840
    67  C          0.30137000       0.88123100       0.37540840
    68  C          0.19863000       0.38123100       0.12459160
    69  C          0.64484000       0.15024110       0.50423170
    70  C          0.85516000       0.65024110      -0.00423170
    71  C          0.35516000       0.84975890       0.49576830
    72  C          0.14484000       0.34975890       0.00423170
    73  N          0.95017000       0.28848100       0.33265150
    74  N          0.54983000       0.78848100       0.16734850
    75  N          0.04983000       0.71151900       0.66734850
    76  N          0.45017000       0.21151900       0.83265150
    77  C          0.65223000       0.05628900       0.77521160
    78  C          0.84777000       0.55628900       0.72478840
    79  C          0.34777000       0.94371100       0.22478840
    80  C          0.15223000       0.44371100       0.27521160
    81  H          0.93260000       0.28141200       0.25920000
    82  H          0.56740000       0.78141200       0.24080000
    83  H          0.06740000       0.71858800       0.74080000
    84  H          0.43260000       0.21858800       0.75920000
    85  H          0.84550000       0.31741300       0.36620000
    86  H          0.65450000       0.81741300       0.13380000
    87  H          0.15450000       0.68258700       0.63380000
    88  H          0.34550000       0.18258700       0.86620000
    89  H          0.06140000       0.29001200       0.56620000
    90  H          0.43860000       0.79001200       0.93380000
    91  H          0.93860000       0.70998800       0.43380000
    92  H          0.56140000       0.20998800       0.06620000
    93  H          0.60740000       0.11451200       0.44420000
    94  H          0.89260000       0.61451200       0.05580000
    95  H          0.39260000       0.88548800       0.55580000
    96  H          0.10740000       0.38548800       0.94420000
    97  H          0.78850000       0.17531100       0.49211900
    98  H          0.71150000       0.67531100       0.00788100
    99  H          0.21150000       0.82468900       0.50788100
   100  H          0.28850000       0.32468900      -0.00788100
   101  H          0.43150000      -0.00361300       0.83120000
   102  H          0.06850000       0.49638700       0.66880000
   103  H          0.56850000       0.00361300       0.16880000
   104  H          0.93150000       0.50361300       0.33120000
   105  H          0.31140000       0.20351100       0.31420000
   106  H          0.18860000       0.70351100       0.18580000
   107  H          0.68860000       0.79648900       0.68580000
   108  H          0.81140000       0.29648900       0.81420000
   109  H          0.96740000       0.09431200       0.87420000
   110  H          0.53260000       0.59431200       0.62580000
   111  H          0.03260000       0.90568800       0.12580000
   112  H          0.46740000       0.40568800       0.37420000
   113  H          0.65250000       0.01231300       0.92520000
   114  H          0.84750000       0.51231300       0.57480000
   115  H          0.34750000       0.98768700       0.07480000
   116  H          0.15250000       0.48768700       0.42520000
   117  H          0.42050000       0.05511300       0.62720000
   118  H          0.07950000       0.55511300       0.87280000
   119  H          0.57950000       0.94488700       0.37280000
   120  H          0.92050000       0.44488700       0.12720000
   121  O          0.85408000       0.02805700       0.36025110
   122  O          0.64592000       0.52805700       0.13974890
   123  O          0.14592000       0.97194300       0.63974890
   124  O          0.35408000       0.47194300       0.86025110
   125  O          0.20063000       0.06161900       0.47121140
   126  O          0.29937000       0.56161900       0.02878860
   127  O          0.79937000       0.93838100       0.52878860
   128  O          0.70063000       0.43838100       0.97121140
   129  C          0.01903000       0.02596900       0.45218160
   130  C          0.48097000       0.52596900       0.04781840
   131  C         -0.01903000       0.97403100       0.54781840
   132  C          0.51903000       0.47403100       0.95218160
