data_CEMGEJ
_symmetry_space_group_name_H-M    'P1'
_symmetry_Int_Tables_number       1
loop_
_symmetry_equiv_pos_site_id
_symmetry_equiv_pos_as_xyz
1 x,y,z
_cell_length_a                   6.00964
_cell_length_b                   10.49418
_cell_length_c                   14.501611
_cell_angle_alpha                92.0516
_cell_angle_beta                 101.3756
_cell_angle_gamma                90.5076
loop_
_atom_site_label
_atom_site_type_symbol
_atom_site_fract_x
_atom_site_fract_y
_atom_site_fract_z
     1  Br         0.69172900       0.45860500       0.79186400
     2  Br         0.30827100       0.54139500       0.20813600
     3  Br         0.86293100       0.04259500       0.20985400
     4  Br         0.13706900       0.95740500       0.79014600
     5  F          0.79756000       0.40965000       0.62253000
     6  F          0.20244000       0.59035000       0.37747000
     7  F          0.75937000       0.24104000       0.69923000
     8  F          0.24063000       0.75896000       0.30077000
     9  F          0.33876000       0.45274000       0.60863000
    10  F          0.66124000       0.54726000       0.39137000
    11  F          0.30917000       0.27784000       0.67992000
    12  F          0.69083000       0.72216000       0.32008000
    13  F          0.50536000       0.32544000       0.47182000
    14  F          0.49464000       0.67456000       0.52818000
    15  F          0.49276000       0.14943000       0.54353000
    16  F          0.50724000       0.85057000       0.45647000
    17  F          0.04586000       0.35293000       0.45983000
    18  F          0.95414000       0.64707000       0.54017000
    19  F          0.03376000       0.17584000       0.53082000
    20  F          0.96624000       0.82416000       0.46918000
    21  F          0.23757000       0.22234000       0.32503000
    22  F          0.76243000       0.77766000       0.67497000
    23  F          0.20266000       0.04814000       0.39603000
    24  F          0.79734000       0.95186000       0.60397000
    25  F          0.78422000       0.25894000       0.30243000
    26  F          0.21578000       0.74106000       0.69757000
    27  F          0.74554000       0.08945000       0.37773000
    28  F          0.25446000       0.91055000       0.62227000
    29  C          0.67161000       0.35456000       0.67804000
    30  C          0.32839000       0.64544000       0.32196000
    31  C          0.42459000       0.33905000       0.62394000
    32  C          0.57541000       0.66095000       0.37606000
    33  C          0.39411000       0.26216000       0.52804000
    34  C          0.60589000       0.73784000       0.47196000
    35  C          0.14669000       0.24006000       0.47514000
    36  C          0.85331000       0.75994000       0.52486000
    37  C          0.11929000       0.16276000       0.38004000
    38  C          0.88071000       0.83724000       0.61996000
    39  C          0.87469000       0.14636000       0.32404000
    40  C          0.12531000       0.85364000       0.67596000
    41  N          0.75607000       0.64094000       0.95403000
    42  N          0.24393000       0.35906000       0.04597000
    43  N          0.80717000       0.85764000       0.04793000
    44  N          0.19283000       0.14236000       0.95207000
    45  C         -0.00402000       0.68555000       0.97174000
    46  C          0.00402000       0.31445000       0.02826000
    47  H          0.04480000       0.69260000       0.91220000
    48  H          0.95520000       0.30740000       0.08780000
    49  H          0.09100000       0.62380000       0.00840000
    50  H          0.90900000       0.37620000      -0.00840000
    51  C          0.02389000       0.81636000       0.02544000
    52  C         -0.02389000       0.18364000       0.97456000
    53  H          0.13580000       0.81030000       0.08310000
    54  H          0.86420000       0.18970000       0.91690000
    55  H          0.07790000       0.87910000       0.98710000
    56  H          0.92210000       0.12090000       0.01290000
    57  C          0.61539000       0.73925000       0.90104000
    58  C          0.38461000       0.26075000       0.09896000
    59  H          0.45740000       0.71160000       0.88770000
    60  H          0.54260000       0.28840000       0.11230000
    61  H          0.66230000       0.75070000       0.84150000
    62  H          0.33770000       0.24930000       0.15850000
    63  C          0.64089000       0.86695000       0.95874000
    64  C          0.35911000       0.13305000       0.04126000
    65  H          0.68970000       0.93320000       0.92180000
    66  H          0.31030000       0.06680000       0.07820000
    67  H          0.49470000       0.89060000       0.97240000
    68  H          0.50530000       0.10940000       0.02760000
    69  C          0.68619000       0.62965000       0.04524000
    70  C          0.31381000       0.37035000       0.95476000
    71  H          0.77240000       0.56330000       0.08030000
    72  H          0.22760000       0.43670000       0.91970000
    73  H          0.52650000       0.60570000       0.03460000
    74  H          0.47350000       0.39430000       0.96540000
    75  C          0.72599000       0.75765000       0.10304000
    76  C          0.27401000       0.24235000       0.89696000
    77  H          0.58520000       0.78410000       0.12060000
    78  H          0.41480000       0.21590000       0.87940000
    79  H          0.83720000       0.74620000       0.16020000
    80  H          0.16280000       0.25380000       0.83980000
