data_CEMGAF
_symmetry_space_group_name_H-M    'P1'
_symmetry_Int_Tables_number       1
loop_
_symmetry_equiv_pos_site_id
_symmetry_equiv_pos_as_xyz
1 x,y,z
_cell_length_a                   13.46596
_cell_length_b                   11.08546
_cell_length_c                   10.79556
_cell_angle_alpha                90.0
_cell_angle_beta                 106.2715
_cell_angle_gamma                90.0
loop_
_atom_site_label
_atom_site_type_symbol
_atom_site_fract_x
_atom_site_fract_y
_atom_site_fract_z
     1  Br         0.47057300       0.36072400       0.13908500
     2  Br         0.52942700       0.86072400       0.36091500
     3  Br         0.52942700       0.63927600       0.86091500
     4  Br         0.47057300       0.13927600       0.63908500
     5  Br         0.92661700       0.33779400       0.81493500
     6  Br         0.07338300       0.83779400       0.68506500
     7  Br         0.07338300       0.66220600       0.18506500
     8  Br         0.92661700       0.16220600       0.31493500
     9  C          0.34923000       0.35374000      -0.00775000
    10  C          0.65077000       0.85374000       0.50775000
    11  C          0.65077000       0.64626000       0.00775000
    12  C          0.34923000       0.14626000       0.49225000
    13  C          0.25013000       0.34264000       0.03304000
    14  C          0.74987000       0.84264000       0.46696000
    15  C          0.74987000       0.65736000       0.96696000
    16  C          0.25013000       0.15736000       0.53304000
    17  C          0.14783000       0.34894000       0.92035000
    18  C          0.85217000       0.84894000       0.57965000
    19  C          0.85217000       0.65106000       0.07965000
    20  C          0.14783000       0.15106000       0.42035000
    21  C          0.04883000       0.30804000       0.95535000
    22  C          0.95117000       0.80804000       0.54465000
    23  C          0.95117000       0.69196000       0.04465000
    24  C          0.04883000       0.19196000       0.45535000
    25  F          0.35763180       0.25793000       0.92077000
    26  F          0.64236820       0.75793000       0.57923000
    27  F          0.64236820       0.74207000       0.07923000
    28  F          0.35763180       0.24207000       0.42077000
    29  F          0.34425180       0.45213000       0.92067000
    30  F          0.65574820       0.95213000       0.57933000
    31  F          0.65574820       0.54787000       0.07933000
    32  F          0.34425180       0.04787000       0.42067000
    33  F          0.25256160       0.23862000       0.09543000
    34  F          0.74743840       0.73862000       0.40457000
    35  F          0.74743840       0.76138000       0.90457000
    36  F          0.25256160       0.26138000       0.59543000
    37  F          0.24725170       0.43182000       0.11463000
    38  F          0.75274830       0.93182000       0.38537000
    39  F          0.75274830       0.56818000       0.88537000
    40  F          0.24725170       0.06818000       0.61463000
    41  F          0.15754170       0.27752000       0.82507000
    42  F          0.84245830       0.77752000       0.67493000
    43  F          0.84245830       0.72248000       0.17493000
    44  F          0.15754170       0.22248000       0.32507000
    45  F          0.13500160       0.46252000       0.87847000
    46  F          0.86499840       0.96252000       0.62153000
    47  F          0.86499840       0.53748000       0.12153000
    48  F          0.13500160       0.03748000       0.37847000
    49  F          0.05584160       0.19132000       0.98417000
    50  F          0.94415840       0.69132000       0.51583000
    51  F          0.94415840       0.80868000       0.01583000
    52  F          0.05584160       0.30868000       0.48417000
    53  F          0.04251170       0.36832000       0.05993000
    54  F          0.95748830       0.86832000       0.44007000
    55  F          0.95748830       0.63168000       0.94007000
    56  F          0.04251170       0.13168000       0.55993000
    57  C          0.66323000       0.24234000       0.40595000
    58  C          0.33677000       0.74234000       0.09405000
    59  C          0.33677000       0.75766000       0.59405000
    60  C          0.66323000       0.25766000       0.90595000
    61  H          0.69970000       0.19960000       0.35100000
    62  H          0.30030000       0.69960000       0.14900000
    63  H          0.30030000       0.80040000       0.64900000
    64  H          0.69970000       0.30040000       0.85100000
    65  H          0.59740000       0.19960000       0.39920000
    66  H          0.40260000       0.69960000       0.10080000
    67  H          0.40260000       0.80040000       0.60080000
    68  H          0.59740000       0.30040000       0.89920000
    69  C          0.59073000       0.43104000       0.44554000
    70  C          0.40927000       0.93104000       0.05446000
    71  C          0.40927000       0.56896000       0.55446000
    72  C          0.59073000       0.06896000       0.94554000
    73  H          0.52390000       0.39170000       0.44150000
    74  H          0.47610000       0.89170000       0.05850000
    75  H          0.47610000       0.60830000       0.55850000
    76  H          0.52390000       0.10830000       0.94150000
    77  H          0.57640000       0.51530000       0.41540000
    78  H          0.42360000       0.01530000       0.08460000
    79  H          0.42360000       0.48470000       0.58460000
    80  H          0.57640000       0.98470000       0.91540000
    81  C          0.74043000       0.42874000       0.36914000
    82  C          0.25957000       0.92874000       0.13086000
    83  C          0.25957000       0.57126000       0.63086000
    84  C          0.74043000       0.07126000       0.86914000
    85  H          0.72680000       0.51330000       0.34000000
    86  H          0.27320000       0.01330000       0.16000000
    87  H          0.27320000       0.48670000       0.66000000
    88  H          0.72680000       0.98670000       0.84000000
    89  H          0.77630000       0.38810000       0.31220000
    90  H          0.22370000       0.88810000       0.18780000
    91  H          0.22370000       0.61190000       0.68780000
    92  H          0.77630000       0.11190000       0.81220000
    93  C          0.73083000       0.24144000       0.54775000
    94  C          0.26917000       0.74144000       0.95225000
    95  C          0.26917000       0.75856000       0.45225000
    96  C          0.73083000       0.25856000       0.04775000
    97  H          0.69290000       0.20070000       0.60230000
    98  H          0.30710000       0.70070000       0.89770000
    99  H          0.30710000       0.79930000       0.39770000
   100  H          0.69290000       0.29930000       0.10230000
   101  H          0.79500000       0.19530000       0.55410000
   102  H          0.20500000       0.69530000       0.94590000
   103  H          0.20500000       0.80470000       0.44590000
   104  H          0.79500000       0.30470000       0.05410000
   105  C          0.66043000       0.43054000       0.58645000
   106  C          0.33957000       0.93054000       0.91355000
   107  C          0.33957000       0.56946000       0.41355000
   108  C          0.66043000       0.06946000       0.08645000
   109  H          0.67630000       0.51450000       0.61660000
   110  H          0.32370000       0.01450000       0.88340000
   111  H          0.32370000       0.48550000       0.38340000
   112  H          0.67630000       0.98550000       0.11660000
   113  H          0.62330000       0.39120000       0.64280000
   114  H          0.37670000       0.89120000       0.85720000
   115  H          0.37670000       0.60880000       0.35720000
   116  H          0.62330000       0.10880000       0.14280000
   117  C          0.80923000       0.42584000       0.50975000
   118  C          0.19077000       0.92584000      -0.00975000
   119  C          0.19077000       0.57416000       0.49025000
   120  C          0.80923000       0.07416000       0.00975000
   121  H          0.87450000       0.38310000       0.51320000
   122  H          0.12550000       0.88310000      -0.01320000
   123  H          0.12550000       0.61690000       0.48680000
   124  H          0.87450000       0.11690000       0.01320000
   125  H          0.82660000       0.50940000       0.54030000
   126  H          0.17340000       0.00940000       0.95970000
   127  H          0.17340000       0.49060000       0.45970000
   128  H          0.82660000      -0.00940000       0.04030000
   129  N          0.64162000       0.36673000       0.36063000
   130  N          0.35838000       0.86673000       0.13937000
   131  N          0.35838000       0.63327000       0.63937000
   132  N          0.64162000       0.13327000       0.86063000
   133  N          0.75742000       0.36503000       0.59494000
   134  N          0.24258000       0.86503000       0.90506000
   135  N          0.24258000       0.63497000       0.40506000
   136  N          0.75742000       0.13497000       0.09494000
