data_CEQKAN
_symmetry_space_group_name_H-M    'P1'
_symmetry_Int_Tables_number       1
loop_
_symmetry_equiv_pos_site_id
_symmetry_equiv_pos_as_xyz
1 x,y,z
_cell_length_a                   14.118212
_cell_length_b                   23.979719
_cell_length_c                   9.03238
_cell_angle_alpha                90.0
_cell_angle_beta                 105.4123
_cell_angle_gamma                90.0
loop_
_atom_site_label
_atom_site_type_symbol
_atom_site_fract_x
_atom_site_fract_y
_atom_site_fract_z
     1  O          0.46544180       0.20151100       0.28163000
     2  O          0.53455820       0.70151100       0.21837000
     3  O          0.53455820       0.79848900       0.71837000
     4  O          0.46544180       0.29848900       0.78163000
     5  N          0.34542000       0.20136140       0.40464000
     6  N          0.65458000       0.70136140       0.09536000
     7  N          0.65458000       0.79863860       0.59536000
     8  N          0.34542000       0.29863860       0.90464000
     9  H          0.32630000       0.21420000       0.47360000
    10  H          0.67370000       0.71420000       0.02640000
    11  H          0.67370000       0.78580000       0.52640000
    12  H          0.32630000       0.28580000       0.97360000
    13  N          0.14462000       0.27601130       0.02944000
    14  N          0.85538000       0.77601130       0.47056000
    15  N          0.85538000       0.72398870       0.97056000
    16  N          0.14462000       0.22398870       0.52944000
    17  N          0.49002000       0.24790140       0.50784000
    18  N          0.50998000       0.74790140      -0.00784000
    19  N          0.50998000       0.75209860       0.49216000
    20  N          0.49002000       0.25209860       0.00784000
    21  H          0.47030000       0.25681800       0.58050000
    22  H          0.52970000       0.75681800       0.91950000
    23  H          0.52970000       0.74318200       0.41950000
    24  H          0.47030000       0.24318200       0.08050000
    25  N          0.73242000       0.16298130       0.79743000
    26  N          0.26758000       0.66298130       0.70257000
    27  N          0.26758000       0.83701870       0.20257000
    28  N          0.73242000       0.33701870       0.29743000
    29  C          0.43593000       0.21650140       0.39384000
    30  C          0.56407000       0.71650140       0.10616000
    31  C          0.56407000       0.78349860       0.60616000
    32  C          0.43593000       0.28349860       0.89384000
    33  C          0.28293000       0.16367150       0.29574000
    34  C          0.71707000       0.66367150       0.20426000
    35  C          0.71707000       0.83632850       0.70426000
    36  C          0.28293000       0.33632850       0.79574000
    37  H          0.24760000       0.13920000       0.35160000
    38  H          0.75240000       0.63920000       0.14840000
    39  H          0.75240000       0.86080000       0.64840000
    40  H          0.24760000       0.36080000       0.85160000
    41  H          0.32490000       0.13960000       0.25050000
    42  H          0.67510000       0.63960000       0.24950000
    43  H          0.67510000       0.86040000       0.74950000
    44  H          0.32490000       0.36040000       0.75050000
    45  C          0.20803000       0.19252150       0.16644000
    46  C          0.79197000       0.69252150       0.33356000
    47  C          0.79197000       0.80747850       0.83356000
    48  C          0.20803000       0.30747850       0.66644000
    49  C          0.20753000       0.24948150       0.14554000
    50  C          0.79247000       0.74948150       0.35446000
    51  C          0.79247000       0.75051850       0.85446000
    52  C          0.20753000       0.25051850       0.64554000
    53  H          0.25430000       0.27120000       0.21740000
    54  H          0.74570000       0.77120000       0.28260000
    55  H          0.74570000       0.72880000       0.78260000
    56  H          0.25430000       0.22880000       0.71740000
    57  C          0.07823000       0.24527170       0.92905000
    58  C          0.92177000       0.74527170       0.57095000
    59  C          0.92177000       0.75472830       0.07095000
    60  C          0.07823000       0.25472830       0.42905000
    61  H          0.03380000       0.26340000       0.84540000
    62  H          0.96620000       0.76340000       0.65460000
    63  H          0.96620000       0.73660000       0.15460000
    64  H          0.03380000       0.23660000       0.34540000
    65  C          0.07193000       0.18818170       0.94275000
    66  C          0.92807000       0.68818170       0.55725000
    67  C          0.92807000       0.81181830       0.05725000
    68  C          0.07193000       0.31181830       0.44275000
    69  H          0.02330000       0.16760000       0.87050000
    70  H          0.97670000       0.66760000       0.62950000
    71  H          0.97670000       0.83240000       0.12950000
    72  H          0.02330000       0.33240000       0.37050000
    73  C          0.13733000       0.16123160       0.06315000
    74  C          0.86267000       0.66123160       0.43685000
    75  C          0.86267000       0.83876840       0.93685000
    76  C          0.13733000       0.33876840       0.56315000
    77  H          0.13400000       0.12200000       0.07490000
    78  H          0.86600000       0.62200000       0.42510000
    79  H          0.86600000       0.87800000       0.92510000
    80  H          0.13400000       0.37800000       0.57490000
    81  C          0.58733000       0.26669160       0.51064000
    82  C          0.41267000       0.76669160      -0.01064000
    83  C          0.41267000       0.73330840       0.48936000
    84  C          0.58733000       0.23330840       0.01064000
    85  H          0.58940000       0.30790000       0.51760000
    86  H          0.41060000       0.80790000       0.98240000
    87  H          0.41060000       0.69210000       0.48240000
    88  H          0.58940000       0.19210000       0.01760000
    89  H          0.60190000       0.25600000       0.41310000
    90  H          0.39810000       0.75600000       0.08690000
    91  H          0.39810000       0.74400000       0.58690000
    92  H          0.60190000       0.24400000       0.91310000
    93  C          0.66563000       0.24253150       0.64404000
    94  C          0.33437000       0.74253150       0.85596000
    95  C          0.33437000       0.75746850       0.35596000
    96  C          0.66563000       0.25746850       0.14404000
    97  C          0.66633000       0.18621150       0.68114000
    98  C          0.33367000       0.68621150       0.81886000
    99  C          0.33367000       0.81378850       0.31886000
   100  C          0.66633000       0.31378850       0.18114000
   101  H          0.61660000       0.16300000       0.61970000
   102  H          0.38340000       0.66300000       0.88030000
   103  H          0.38340000       0.83700000       0.38030000
   104  H          0.61660000       0.33700000       0.11970000
   105  C          0.80273000       0.19576160       0.88264000
   106  C          0.19727000       0.69576160       0.61736000
   107  C          0.19727000       0.80423840       0.11736000
   108  C          0.80273000       0.30423840       0.38264000
   109  H          0.85060000       0.17960000       0.96590000
   110  H          0.14940000       0.67960000       0.53410000
   111  H          0.14940000       0.82040000       0.03410000
   112  H          0.85060000       0.32040000       0.46590000
   113  C          0.80863000       0.25218170       0.85475000
   114  C          0.19137000       0.75218170       0.64525000
   115  C          0.19137000       0.74781830       0.14525000
   116  C          0.80863000       0.24781830       0.35475000
   117  H          0.85970000       0.27420000       0.91710000
   118  H          0.14030000       0.77420000       0.58290000
   119  H          0.14030000       0.72580000       0.08290000
   120  H          0.85970000       0.22580000       0.41710000
   121  C          0.73843000       0.27593160       0.73414000
   122  C          0.26157000       0.77593160       0.76586000
   123  C          0.26157000       0.72406840       0.26586000
   124  C          0.73843000       0.22406840       0.23414000
   125  H          0.74020000       0.31470000       0.71340000
   126  H          0.25980000       0.81470000       0.78660000
   127  H          0.25980000       0.68530000       0.28660000
   128  H          0.74020000       0.18530000       0.21340000
   129  I          0.13015200       0.39013200       0.07963300
   130  I          0.86984800       0.89013200       0.42036700
   131  I          0.86984800       0.60986800       0.92036700
   132  I          0.13015200       0.10986800       0.57963300
   133  I          0.21328200       0.50765200       0.87178700
   134  I          0.78671800       0.00765200       0.62821300
   135  I          0.78671800       0.49234800       0.12821300
   136  I          0.21328200       0.99234800       0.37178700
   137  F          0.16166170       0.61686900       0.02073000
   138  F          0.83833830       0.11686900       0.47927000
   139  F          0.83833830       0.38313100       0.97927000
   140  F          0.16166170       0.88313100       0.52073000
   141  F          0.08036160       0.63785900       0.25053000
   142  F          0.91963840       0.13785900       0.24947000
   143  F          0.91963840       0.36214100       0.74947000
   144  F          0.08036160       0.86214100       0.75053000
   145  F          0.02477170       0.55342100       0.40693000
   146  F          0.97522830       0.05342100       0.09307000
   147  F          0.97522830       0.44657900       0.59307000
   148  F          0.02477170       0.94657900       0.90693000
   149  F          0.04839170       0.44693100       0.33043000
   150  F          0.95160830       0.94693100       0.16957000
   151  F          0.95160830       0.55306900       0.66957000
   152  F          0.04839170       0.05306900       0.83043000
   153  C          0.11843000       0.47506150       0.13134000
   154  C          0.88157000       0.97506150       0.36866000
   155  C          0.88157000       0.52493850       0.86866000
   156  C          0.11843000       0.02493850       0.63134000
   157  C          0.14833000       0.51899150       0.05204000
   158  C          0.85167000       0.01899150       0.44796000
   159  C          0.85167000       0.48100850       0.94796000
   160  C          0.14833000       0.98100850       0.55204000
   161  C          0.13533000       0.57324150       0.09424000
   162  C          0.86467000       0.07324150       0.40576000
   163  C          0.86467000       0.42675850       0.90576000
   164  C          0.13533000       0.92675850       0.59424000
   165  C          0.09293000       0.58502150       0.21204000
   166  C          0.90707000       0.08502150       0.28796000
   167  C          0.90707000       0.41497850       0.78796000
   168  C          0.09293000       0.91497850       0.71204000
   169  C          0.06483000       0.54215160       0.29184000
   170  C          0.93517000       0.04215160       0.20816000
   171  C          0.93517000       0.45784840       0.70816000
   172  C          0.06483000       0.95784840       0.79184000
   173  C          0.07753000       0.48762150       0.24994000
   174  C          0.92247000       0.98762150       0.25006000
   175  C          0.92247000       0.51237850       0.75006000
   176  C          0.07753000       0.01237850       0.74994000
   177  I          0.68450200       0.07084200       0.95550200
   178  I          0.31549800       0.57084200       0.54449800
   179  I          0.31549800       0.92915800       0.04449800
   180  I          0.68450200       0.42915800       0.45550200
   181  I          0.55189200       0.09118200       0.25652300
   182  I          0.44810800       0.59118200       0.24347700
   183  I          0.44810800       0.90881800       0.74347700
   184  I          0.55189200       0.40881800       0.75652300
   185  F          0.52301170       0.97115900       0.37863000
   186  F          0.47698830       0.47115900       0.12137000
   187  F          0.47698830       0.02884100       0.62137000
   188  F          0.52301170       0.52884100       0.87863000
   189  F          0.56747180       0.86844900       0.30093000
   190  F          0.43252820       0.36844900       0.19907000
   191  F          0.43252820       0.13155100       0.69907000
   192  F          0.56747180       0.63155100       0.80093000
   193  F          0.66381170       0.85426100       0.08103000
   194  F          0.33618830       0.35426100       0.41897000
   195  F          0.33618830       0.14573900       0.91897000
   196  F          0.66381170       0.64573900       0.58103000
   197  F          0.71681160       0.94259100       0.94052000
   198  F          0.28318840       0.44259100       0.55948000
   199  F          0.28318840       0.05740900       0.05948000
   200  F          0.71681160       0.55740900       0.44052000
   201  C          0.64502000       0.00511140       0.08304000
   202  C          0.35498000       0.50511140       0.41696000
   203  C          0.35498000      -0.00511140       0.91696000
   204  C          0.64502000       0.49488860       0.58304000
   205  C          0.59543000       0.01268140       0.19604000
   206  C          0.40457000       0.51268140       0.30396000
   207  C          0.40457000       0.98731860       0.80396000
   208  C          0.59543000       0.48731860       0.69604000
   209  C          0.57083000       0.96620840       0.26934000
   210  C          0.42917000       0.46620840       0.23066000
   211  C          0.42917000       0.03379160       0.73066000
   212  C          0.57083000       0.53379160       0.76934000
   213  C          0.59323000       0.91323850       0.23134000
   214  C          0.40677000       0.41323850       0.26866000
   215  C          0.40677000       0.08676150       0.76866000
   216  C          0.59323000       0.58676150       0.73134000
   217  C          0.64233000       0.90551850       0.11984000
   218  C          0.35767000       0.40551850       0.38016000
   219  C          0.35767000       0.09448150       0.88016000
   220  C          0.64233000       0.59448150       0.61984000
   221  C          0.66783000       0.95168850       0.04814000
   222  C          0.33217000       0.45168850       0.45186000
   223  C          0.33217000       0.04831150       0.95186000
   224  C          0.66783000       0.54831150       0.54814000
