data_CEQKIV
_symmetry_space_group_name_H-M    'P1'
_symmetry_Int_Tables_number       1
loop_
_symmetry_equiv_pos_site_id
_symmetry_equiv_pos_as_xyz
1 x,y,z
_cell_length_a                   13.111318
_cell_length_b                   4.53906
_cell_length_c                   35.2355
_cell_angle_alpha                90.0
_cell_angle_beta                 98.2382
_cell_angle_gamma                90.0
loop_
_atom_site_label
_atom_site_type_symbol
_atom_site_fract_x
_atom_site_fract_y
_atom_site_fract_z
     1  O          0.50984000       0.38461200       0.05823160
     2  O          0.49016000       0.88461200       0.44176840
     3  O          0.49016000       0.61538800       0.94176840
     4  O          0.50984000       0.11538800       0.55823160
     5  N          0.56066000       0.95378400       0.08772000
     6  N          0.43934000       0.45378400       0.41228000
     7  N          0.43934000       0.04621600       0.91228000
     8  N          0.56066000       0.54621600       0.58772000
     9  H          0.55570000       0.76184000       0.08530000
    10  H          0.44430000       0.26184000       0.41470000
    11  H          0.44430000       0.23816000       0.91470000
    12  H          0.55570000       0.73816000       0.58530000
    13  N          0.64426000       0.59021700       0.19882000
    14  N          0.35574000       0.09021700       0.30118000
    15  N          0.35574000       0.40978300       0.80118000
    16  N          0.64426000       0.90978300       0.69882000
    17  N          0.42125000       0.96608400       0.04018190
    18  N          0.57875000       0.46608400       0.45981810
    19  N          0.57875000       0.03391600       0.95981810
    20  N          0.42125000       0.53391600       0.54018190
    21  H          0.42670000       0.77384000       0.04330000
    22  H          0.57330000       0.27384000       0.45670000
    23  H          0.57330000       0.22616000       0.95670000
    24  H          0.42670000       0.72616000       0.54330000
    25  N          0.14176000       0.59981900       0.97958000
    26  N          0.85824000       0.09981900       0.52042000
    27  N          0.85824000       0.40018100       0.02042000
    28  N          0.14176000       0.90018100       0.47958000
    29  C          0.49846000       0.11601700       0.06152000
    30  C          0.50154000       0.61601700       0.43848000
    31  C          0.50154000       0.88398300       0.93848000
    32  C          0.49846000       0.38398300       0.56152000
    33  C          0.64216000       0.08921900       0.11392000
    34  C          0.35784000       0.58921900       0.38608000
    35  C          0.35784000       0.91078100       0.88608000
    36  C          0.64216000       0.41078100       0.61392000
    37  H          0.68020000       0.22910000       0.09960000
    38  H          0.31980000       0.72910000       0.40040000
    39  H          0.31980000       0.77090000       0.90040000
    40  H          0.68020000       0.27090000       0.59960000
    41  H          0.69110000       0.93480000       0.12480000
    42  H          0.30890000       0.43480000       0.37520000
    43  H          0.30890000       0.06520000       0.87520000
    44  H          0.69110000       0.56520000       0.62480000
    45  C          0.60276000       0.25121700       0.14632000
    46  C          0.39724000       0.75121700       0.35368000
    47  C          0.39724000       0.74878300       0.85368000
    48  C          0.60276000       0.24878300       0.64632000
    49  C          0.67006000       0.43720000       0.16952000
    50  C          0.32994000       0.93720000       0.33048000
    51  C          0.32994000       0.56280000       0.83048000
    52  C          0.67006000       0.06280000       0.66952000
    53  H          0.73850000       0.45600000       0.16390000
    54  H          0.26150000       0.95600000       0.33610000
    55  H          0.26150000       0.54400000       0.83610000
    56  H          0.73850000       0.04400000       0.66390000
    57  C          0.54898000       0.56020000       0.20683000
    58  C          0.45102000       0.06020000       0.29317000
    59  C          0.45102000       0.43980000       0.79317000
    60  C          0.54898000       0.93980000       0.70683000
    61  H          0.52950000       0.66870000       0.22760000
    62  H          0.47050000       0.16870000       0.27240000
    63  H          0.47050000       0.33130000       0.77240000
    64  H          0.52950000       0.83130000       0.72760000
    65  C          0.47657000       0.37920000       0.18642000
    66  C          0.52343000       0.87920000       0.31358000
    67  C          0.52343000       0.62080000       0.81358000
    68  C          0.47657000       0.12080000       0.68642000
    69  H          0.40910000       0.36190000       0.19310000
    70  H          0.59090000       0.86190000       0.30690000
    71  H          0.59090000       0.63810000       0.80690000
    72  H          0.40910000       0.13810000       0.69310000
    73  C          0.50537000       0.22220000       0.15592000
    74  C          0.49463000       0.72220000       0.34408000
    75  C          0.49463000       0.77780000       0.84408000
    76  C          0.50537000       0.27780000       0.65592000
    77  H          0.45740000       0.09250000       0.14160000
    78  H          0.54260000       0.59250000       0.35840000
    79  H          0.54260000       0.90750000       0.85840000
    80  H          0.45740000       0.40750000       0.64160000
    81  C          0.36777000       0.09801900       0.00552000
    82  C          0.63223000       0.59801900       0.49448000
    83  C          0.63223000       0.90198100       0.99448000
    84  C          0.36777000       0.40198100       0.50552000
    85  H          0.34120000       0.93830000       0.98770000
    86  H          0.65880000       0.43830000       0.51230000
    87  H          0.65880000       0.06170000       0.01230000
    88  H          0.34120000       0.56170000       0.48770000
    89  H          0.41800000       0.21310000       0.99310000
    90  H          0.58200000       0.71310000       0.50690000
    91  H          0.58200000       0.78690000       0.00690000
    92  H          0.41800000       0.28690000       0.49310000
    93  C          0.27916000       0.29691800       0.01132000
    94  C          0.72084000       0.79691800       0.48868000
    95  C          0.72084000       0.70308200       0.98868000
    96  C          0.27916000       0.20308200       0.51132000
    97  C          0.21997000       0.41231900       0.97878000
    98  C          0.78003000       0.91231900       0.52122000
    99  C          0.78003000       0.58768100       0.02122000
   100  C          0.21997000       0.08768100       0.47878000
   101  H          0.23600000       0.35400000       0.95450000
   102  H          0.76400000       0.85400000       0.54550000
   103  H          0.76400000       0.64600000       0.04550000
   104  H          0.23600000       0.14600000       0.45450000
   105  C          0.11967000       0.67720000       0.01403000
   106  C          0.88033000       0.17720000       0.48597000
   107  C          0.88033000       0.32280000       0.98597000
   108  C          0.11967000       0.82280000       0.51403000
   109  H          0.06460000       0.81140000       0.01510000
   110  H          0.93540000       0.31140000       0.48490000
   111  H          0.93540000       0.18860000       0.98490000
   112  H          0.06460000       0.68860000       0.51510000
   113  C          0.17267000       0.57220000       0.04812000
   114  C          0.82733000       0.07220000       0.45188000
   115  C          0.82733000       0.42780000       0.95188000
   116  C          0.17267000       0.92780000       0.54812000
   117  H          0.15380000       0.63050000       0.07200000
   118  H          0.84620000       0.13050000       0.42800000
   119  H          0.84620000       0.36950000       0.92800000
   120  H          0.15380000       0.86950000       0.57200000
   121  C          0.25346000       0.38031900       0.04632000
   122  C          0.74654000       0.88031900       0.45368000
   123  C          0.74654000       0.61968100       0.95368000
   124  C          0.25346000       0.11968100       0.54632000
   125  H          0.29140000       0.30550000       0.06930000
   126  H          0.70860000       0.80550000       0.43070000
   127  H          0.70860000       0.69450000       0.93070000
   128  H          0.29140000       0.19450000       0.56930000
   129  I          0.22498500       0.42518130       0.24768200
   130  I          0.77501500       0.92518130       0.25231800
   131  I          0.77501500       0.57481870       0.75231800
   132  I          0.22498500       0.07481870       0.74768200
   133  I          0.95669600       0.16059130       0.08929200
   134  I          0.04330400       0.66059130       0.41070800
   135  I          0.04330400       0.83940870       0.91070800
   136  I          0.95669600       0.33940870       0.58929200
   137  F          0.29594000       0.85141300       0.18414150
   138  F          0.70406000       0.35141300       0.31585850
   139  F          0.70406000       0.14858700       0.81585850
   140  F          0.29594000       0.64858700       0.68414150
   141  F          0.19544000       0.13961200       0.12546150
   142  F          0.80456000       0.63961200       0.37453850
   143  F          0.80456000       0.86038800       0.87453850
   144  F          0.19544000       0.36038800       0.62546150
   145  F          0.88116000       0.77261300       0.15605160
   146  F          0.11884000       0.27261300       0.34394840
   147  F          0.11884000       0.22738700       0.84394840
   148  F          0.88116000       0.72738700       0.65605160
   149  F          0.98226000       0.47951300       0.21521160
   150  F          0.01774000      -0.02048700       0.28478840
   151  F          0.01774000       0.52048700       0.78478840
   152  F          0.98226000       0.02048700       0.71521160
   153  C          0.14287000       0.65631900       0.20212000
   154  C          0.85713000       0.15631900       0.29788000
   155  C          0.85713000       0.34368100       0.79788000
   156  C          0.14287000       0.84368100       0.70212000
   157  C          0.19246000       0.82681900       0.17852000
   158  C          0.80754000       0.32681900       0.32148000
   159  C          0.80754000       0.17318100       0.82148000
   160  C          0.19246000       0.67318100       0.67852000
   161  C          0.14037000      -0.02238100       0.14742000
   162  C          0.85963000       0.47761900       0.35258000
   163  C          0.85963000       0.02238100       0.85258000
   164  C          0.14037000       0.52238100       0.64742000
   165  C          0.03457000       0.96451900       0.13902000
   166  C          0.96543000       0.46451900       0.36098000
   167  C          0.96543000       0.03548100       0.86098000
   168  C          0.03457000       0.53548100       0.63902000
   169  C          0.98394000       0.79320000       0.16312000
   170  C          0.01606000       0.29320000       0.33688000
   171  C          0.01606000       0.20680000       0.83688000
   172  C          0.98394000       0.70680000       0.66312000
   173  C          0.03687000       0.64320000       0.19372000
   174  C          0.96313000       0.14320000       0.30628000
   175  C          0.96313000       0.35680000       0.80628000
   176  C          0.03687000       0.85680000       0.69372000
