data_CEQKER
_symmetry_space_group_name_H-M    'P1'
_symmetry_Int_Tables_number       1
loop_
_symmetry_equiv_pos_site_id
_symmetry_equiv_pos_as_xyz
1 x,y,z
_cell_length_a                   13.91258
_cell_length_b                   4.51173
_cell_length_c                   33.010919
_cell_angle_alpha                90.0
_cell_angle_beta                 97.37901
_cell_angle_gamma                90.0
loop_
_atom_site_label
_atom_site_type_symbol
_atom_site_fract_x
_atom_site_fract_y
_atom_site_fract_z
     1  I          0.05974300       0.16561110       0.41054200
     2  I          0.94025700       0.66561110       0.08945800
     3  I          0.94025700       0.83438890       0.58945800
     4  I          0.05974300       0.33438890       0.91054200
     5  I          0.69641300       0.64295110       0.31438200
     6  I          0.30358700       0.14295110       0.18561800
     7  I          0.30358700       0.35704890       0.68561800
     8  I          0.69641300       0.85704890       0.81438200
     9  F          0.83803000       0.04271000       0.37616120
    10  F          0.16197000       0.54271000       0.12383880
    11  F          0.16197000       0.95729000       0.62383880
    12  F          0.83803000       0.45729000       0.87616120
    13  F          0.86683000       0.38671100       0.26741120
    14  F          0.13317000       0.88671100       0.23258880
    15  F          0.13317000       0.61328900       0.73258880
    16  F          0.86683000       0.11328900       0.76741120
    17  F          0.06043000       0.44291100       0.28042130
    18  F          0.93957000       0.94291100       0.21957870
    19  F          0.93957000       0.55708900       0.71957870
    20  F          0.06043000       0.05708900       0.78042130
    21  F          0.14483000       0.80301100       0.33945130
    22  F          0.85517000       0.30301100       0.16054870
    23  F          0.85517000       0.19698900       0.66054870
    24  F          0.14483000       0.69698900       0.83945130
    25  C         -0.00645000       0.93281600       0.35932000
    26  C          0.00645000       0.43281600       0.14068000
    27  C          0.00645000       0.06718400       0.64068000
    28  C         -0.00645000       0.56718400       0.85932000
    29  C          0.89305000       0.89701500       0.35182000
    30  C          0.10695000       0.39701500       0.14818000
    31  C          0.10695000       0.10298500       0.64818000
    32  C          0.89305000       0.60298500       0.85182000
    33  C          0.84805000       0.71671500       0.32172000
    34  C          0.15195000       0.21671500       0.17828000
    35  C          0.15195000       0.28328500       0.67828000
    36  C          0.84805000       0.78328500       0.82172000
    37  C          0.90555000       0.56811700       0.29732000
    38  C          0.09445000       0.06811700       0.20268000
    39  C          0.09445000       0.43188300       0.70268000
    40  C          0.90555000       0.93188300       0.79732000
    41  C          0.00555000       0.59921600       0.30382000
    42  C         -0.00555000       0.09921600       0.19618000
    43  C         -0.00555000       0.40078400       0.69618000
    44  C          0.00555000       0.90078400       0.80382000
    45  C          0.04735000       0.77991600       0.33362000
    46  C          0.95265000       0.27991600       0.16638000
    47  C          0.95265000       0.22008400       0.66638000
    48  C          0.04735000       0.72008400       0.83362000
    49  O          0.49473000       0.36591100       0.43993150
    50  O          0.50527000       0.86591100       0.06006850
    51  O          0.50527000       0.63408900       0.56006850
    52  O          0.49473000       0.13408900       0.93993150
    53  N          0.58014000       0.94598600       0.45868180
    54  N          0.41986000       0.44598600       0.04131820
    55  N          0.41986000       0.05401400       0.54131820
    56  N          0.58014000       0.55401400       0.95868180
    57  H          0.57160000       0.74885000       0.45720000
    58  H          0.42840000       0.24885000       0.04280000
    59  H          0.42840000       0.25115000       0.54280000
    60  H          0.57160000       0.75115000       0.95720000
    61  N          0.85004000       0.56731500       0.51919190
    62  N          0.14996000       0.06731500       0.98080810
    63  N          0.14996000       0.43268500       0.48080810
    64  N          0.85004000       0.93268500       0.01919190
    65  N          0.45394000       0.93318600       0.40648190
    66  N          0.54606000       0.43318600       0.09351810
    67  N          0.54606000       0.06681400       0.59351810
    68  N          0.45394000       0.56681400       0.90648190
    69  H          0.46560000       0.73585000       0.40820000
    70  H          0.53440000       0.23585000       0.09180000
    71  H          0.53440000       0.26415000       0.59180000
    72  H          0.46560000       0.76415000       0.90820000
    73  N          0.49884000       0.50321500       0.30880180
    74  N          0.50116000       0.00321500       0.19119820
    75  N          0.50116000       0.49678500       0.69119820
    76  N          0.49884000      -0.00321500       0.80880180
    77  C          0.50795000       0.09641500       0.43522000
    78  C          0.49205000       0.59641500       0.06478000
    79  C          0.49205000       0.90358500       0.56478000
    80  C          0.50795000       0.40358500       0.93522000
    81  C          0.63075000       0.08331500       0.49482000
    82  C          0.36925000       0.58331500       0.00518000
    83  C          0.36925000       0.91668500       0.50518000
    84  C          0.63075000       0.41668500       0.99482000
    85  H          0.65271500       0.92585200       0.51470400
    86  H          0.34728500       0.42585200       0.98529600
    87  H          0.34728500       0.07414800       0.48529600
    88  H          0.65271500       0.57414800       0.01470400
    89  H          0.58440700       0.21027800       0.50723100
    90  H          0.41559300       0.71027800       0.99276900
    91  H          0.41559300       0.78972200       0.49276900
    92  H          0.58440700       0.28972200       0.00723100
    93  C          0.71745000       0.26961500       0.48752000
    94  C          0.28255000       0.76961500       0.01248000
    95  C          0.28255000       0.73038500       0.51248000
    96  C          0.71745000       0.23038500       0.98752000
    97  C          0.77275000       0.39511600       0.52112000
    98  C          0.22725000       0.89511600       0.97888000
    99  C          0.22725000       0.60488400       0.47888000
   100  C          0.77275000       0.10488400       0.02112000
   101  H          0.75434100       0.35580800       0.54731100
   102  H          0.24565900       0.85580800       0.95268900
   103  H          0.24565900       0.64419200       0.45268900
   104  H          0.75434100       0.14419200       0.04731100
   105  C          0.87385000       0.62381800       0.48172000
   106  C          0.12615000       0.12381800       0.01828000
   107  C          0.12615000       0.37618200       0.51828000
   108  C          0.87385000       0.87618200       0.98172000
   109  H          0.92779300       0.74847900       0.47935000
   110  H          0.07220700       0.24847900       0.02065000
   111  H          0.07220700       0.25152100       0.52065000
   112  H          0.92779300       0.75152100       0.97935000
   113  C          0.82375000       0.51001700       0.44672000
   114  C          0.17625000       0.01001700       0.05328000
   115  C          0.17625000       0.48998300       0.55328000
   116  C          0.82375000      -0.01001700       0.94672000
   117  H          0.84304400       0.55498000       0.42081000
   118  H          0.15695600       0.05498000       0.07919000
   119  H          0.15695600       0.44502000       0.57919000
   120  H          0.84304400       0.94502000       0.92081000
   121  C          0.74385000       0.32681700       0.44962000
   122  C          0.25615000       0.82681700       0.05038000
   123  C          0.25615000       0.67318300       0.55038000
   124  C          0.74385000       0.17318300       0.94962000
   125  H          0.70842500       0.24345100       0.42575500
   126  H          0.29157500       0.74345100       0.07424500
   127  H          0.29157500       0.75654900       0.57424500
   128  H          0.70842500       0.25654900       0.92575500
   129  C          0.36825000       0.06021600       0.38272000
   130  C          0.63175000       0.56021600       0.11728000
   131  C          0.63175000       0.93978400       0.61728000
   132  C          0.36825000       0.43978400       0.88272000
   133  H          0.33334800       0.18167000       0.40107300
   134  H          0.66665200       0.68167000       0.09892700
   135  H          0.66665200       0.81833000       0.59892700
   136  H          0.33334800       0.31833000       0.90107300
   137  H          0.32458800       0.89663500       0.37214300
   138  H          0.67541200       0.39663500       0.12785700
   139  H          0.67541200       0.10336500       0.62785700
   140  H          0.32458800       0.60336500       0.87214300
   141  C          0.38855000       0.25011500       0.34722000
   142  C          0.61145000       0.75011500       0.15278000
   143  C          0.61145000       0.74988500       0.65278000
   144  C          0.38855000       0.24988500       0.84722000
   145  C          0.48035000       0.32541800       0.33952000
   146  C          0.51965000       0.82541800       0.16048000
   147  C          0.51965000       0.67458200       0.66048000
   148  C          0.48035000       0.17458200       0.83952000
   149  H          0.53381900       0.24667500       0.35690500
   150  H          0.46618100       0.74667500       0.14309500
   151  H          0.46618100       0.75332500       0.64309500
   152  H          0.53381900       0.25332500       0.85690500
   153  C          0.42325000       0.60981700       0.28442000
   154  C          0.57675000       0.10981700       0.21558000
   155  C          0.57675000       0.39018300       0.71558000
   156  C          0.42325000       0.89018300       0.78442000
   157  H          0.43502100       0.73413600       0.26238100
   158  H          0.56497900       0.23413600       0.23761900
   159  H          0.56497900       0.26586400       0.73761900
   160  H          0.43502100       0.76586400       0.76238100
   161  C          0.32805000       0.54851800       0.28962000
   162  C          0.67195000       0.04851800       0.21038000
   163  C          0.67195000       0.45148200       0.71038000
   164  C          0.32805000       0.95148200       0.78962000
   165  H          0.27575700       0.63129600       0.27185200
   166  H          0.72424300       0.13129600       0.22814800
   167  H          0.72424300       0.36870400       0.72814800
   168  H          0.27575700       0.86870400       0.77185200
   169  C          0.31115000       0.36631700       0.32102000
   170  C          0.68885000       0.86631700       0.17898000
   171  C          0.68885000       0.63368300       0.67898000
   172  C          0.31115000       0.13368300       0.82102000
   173  H          0.24640500       0.31860300       0.32490600
   174  H          0.75359500       0.81860300       0.17509400
   175  H          0.75359500       0.68139700       0.67509400
   176  H          0.24640500       0.18139700       0.82490600
