data_CERDUC
_symmetry_space_group_name_H-M    'P1'
_symmetry_Int_Tables_number       1
loop_
_symmetry_equiv_pos_site_id
_symmetry_equiv_pos_as_xyz
1 x,y,z
_cell_length_a                   12.4143
_cell_length_b                   8.606714
_cell_length_c                   12.7493
_cell_angle_alpha                90.0
_cell_angle_beta                 108.022
_cell_angle_gamma                90.0
loop_
_atom_site_label
_atom_site_type_symbol
_atom_site_fract_x
_atom_site_fract_y
_atom_site_fract_z
     1  I          0.07881300       0.82523500       0.67690300
     2  I          0.92118700       0.32523500       0.82309700
     3  I          0.92118700       0.17476500       0.32309700
     4  I          0.07881300       0.67476500       0.17690300
     5  O          0.62004000       0.39675000       0.46443000
     6  O          0.37996000       0.89675000       0.03557000
     7  O          0.37996000       0.60325000       0.53557000
     8  O          0.62004000       0.10325000       0.96443000
     9  H          0.58372100       0.33622200       0.49012100
    10  H          0.41627900       0.83622200       0.00987900
    11  H          0.41627900       0.66377800       0.50987900
    12  H          0.58372100       0.16377800      -0.00987900
    13  O          0.69714000       0.46535000       0.64003000
    14  O          0.30286000       0.96535000       0.85997000
    15  O          0.30286000       0.53465000       0.35997000
    16  O          0.69714000       0.03465000       0.14003000
    17  C          0.94935000       0.71146000       0.55645000
    18  C          0.05065000       0.21146000       0.94355000
    19  C          0.05065000       0.28854000       0.44355000
    20  C          0.94935000       0.78854000       0.05645000
    21  C          0.86785000       0.63296000       0.58765000
    22  C          0.13215000       0.13296000       0.91235000
    23  C          0.13215000       0.36704000       0.41235000
    24  C          0.86785000       0.86704000       0.08765000
    25  H          0.86887300       0.63214600       0.66082300
    26  H          0.13112700       0.13214600       0.83917700
    27  H          0.13112700       0.36785400       0.33917700
    28  H          0.86887300       0.86785400       0.16082300
    29  C          0.69575000       0.46966000       0.54555000
    30  C          0.30425000       0.96966000       0.95445000
    31  C          0.30425000       0.53034000       0.45445000
    32  C          0.69575000       0.03034000       0.04555000
    33  C          0.78325000       0.55406000       0.50664000
    34  C          0.21675000       0.05406000      -0.00664000
    35  C          0.21675000       0.44594000       0.49336000
    36  C          0.78325000       0.94594000       0.00664000
    37  C          0.78036000       0.55747000       0.39885000
    38  C          0.21964000       0.05747000       0.10115000
    39  C          0.21964000       0.44253000       0.60115000
    40  C          0.78036000       0.94253000       0.89885000
    41  H          0.72232800       0.50687300       0.34557500
    42  H          0.27767200       0.00687300       0.15442500
    43  H          0.27767200       0.49312700       0.65442500
    44  H          0.72232800      -0.00687300       0.84557500
    45  C          0.86236000       0.63499000       0.36886000
    46  C          0.13764000       0.13499000       0.13114000
    47  C          0.13764000       0.36501000       0.63114000
    48  C          0.86236000       0.86501000       0.86886000
    49  H          0.86155400       0.63454200       0.29558200
    50  H          0.13844600       0.13454200       0.20441800
    51  H          0.13844600       0.36545800       0.70441800
    52  H          0.86155400       0.86545800       0.79558200
    53  C          0.94706000       0.71457000       0.44815000
    54  C          0.05294000       0.21457000       0.05185000
    55  C          0.05294000       0.28543000       0.55185000
    56  C          0.94706000       0.78543000       0.94815000
    57  H          0.00183600       0.76959000       0.42774300
    58  H         -0.00183600       0.26959000       0.07225700
    59  H         -0.00183600       0.23041000       0.57225700
    60  H          0.00183600       0.73041000       0.92774300
    61  Cl         0.22630130       0.94653820       0.41076130
    62  Cl         0.77369870       0.44653820       0.08923870
    63  Cl         0.77369870       0.05346180       0.58923870
    64  Cl         0.22630130       0.55346180       0.91076130
    65  N          0.48275000       0.22466000       0.53945000
    66  N          0.51725000       0.72466000       0.96055000
    67  N          0.51725000       0.77534000       0.46055000
    68  N          0.48275000       0.27534000       0.03945000
    69  C          0.33315000       0.04546000       0.50785000
    70  C          0.66685000       0.54546000      -0.00785000
    71  C          0.66685000       0.95454000       0.49215000
    72  C          0.33315000       0.45454000       0.00785000
    73  C          0.39755000       0.14796000       0.47045000
    74  C          0.60245000       0.64796000       0.02955000
    75  C          0.60245000       0.85204000       0.52955000
    76  C          0.39755000       0.35204000       0.97045000
    77  H          0.38097300       0.16400100       0.39497200
    78  H          0.61902700       0.66400100       0.10502800
    79  H          0.61902700       0.83599900       0.60502800
    80  H          0.38097300       0.33599900       0.89497200
    81  C          0.35445000       0.02357000       0.61955000
    82  C          0.64555000       0.52357000       0.88045000
    83  C          0.64555000       0.97643000       0.38045000
    84  C          0.35445000       0.47643000       0.11955000
    85  H          0.30935700       0.95772900       0.64598600
    86  H          0.69064300       0.45772900       0.85401400
    87  H          0.69064300       0.04227100       0.35401400
    88  H          0.30935700       0.54227100       0.14598600
    89  C          0.50516000       0.19887000       0.64816000
    90  C          0.49484000       0.69887000       0.85184000
    91  C          0.49484000       0.80113000       0.35184000
    92  C          0.50516000       0.30113000       0.14816000
    93  H          0.56581700       0.25069000       0.69692300
    94  H          0.43418300       0.75069000       0.80307700
    95  H          0.43418300       0.74931000       0.30307700
    96  H          0.56581700       0.24931000       0.19692300
    97  C          0.44326000       0.10089000       0.68985000
    98  C          0.55674000       0.60089000       0.81015000
    99  C          0.55674000       0.89911000       0.31015000
   100  C          0.44326000       0.39911000       0.18985000
   101  H          0.46128400       0.08654300       0.76555700
   102  H          0.53871600       0.58654300       0.73444300
   103  H          0.53871600       0.91345700       0.23444300
   104  H          0.46128400       0.41345700       0.26555700
