data_CERFOY
_symmetry_space_group_name_H-M    'P1'
_symmetry_Int_Tables_number       1
loop_
_symmetry_equiv_pos_site_id
_symmetry_equiv_pos_as_xyz
1 x,y,z
_cell_length_a                   11.83446
_cell_length_b                   8.50124
_cell_length_c                   13.55918
_cell_angle_alpha                90.0
_cell_angle_beta                 110.9566
_cell_angle_gamma                90.0
loop_
_atom_site_label
_atom_site_type_symbol
_atom_site_fract_x
_atom_site_fract_y
_atom_site_fract_z
     1  C          0.71872000       0.60633000       0.63642000
     2  C          0.28128000       0.10633000       0.86358000
     3  C          0.28128000       0.39367000       0.36358000
     4  C          0.71872000       0.89367000       0.13642000
     5  H          0.77982600       0.57096600       0.69708300
     6  H          0.22017400       0.07096600       0.80291700
     7  H          0.22017400       0.42903400       0.30291700
     8  H          0.77982600       0.92903400       0.19708300
     9  I          0.40805200       0.78825200       0.32249200
    10  I          0.59194800       0.28825200       0.17750800
    11  I          0.59194800       0.21174800       0.67750800
    12  I          0.40805200       0.71174800       0.82249200
    13  C          0.63132000       0.61113000       0.45698190
    14  C          0.36868000       0.11113000       0.04301810
    15  C          0.36868000       0.38887000       0.54301810
    16  C          0.63132000       0.88887000       0.95698190
    17  H          0.63103200       0.57909500       0.39131400
    18  H          0.36896800       0.07909500       0.10868600
    19  H          0.36896800       0.42090500       0.60868600
    20  H          0.63103200       0.92090500       0.89131400
    21  N          0.71896180       0.55972000       0.54350160
    22  N          0.28103820       0.05972000       0.95649840
    23  N          0.28103820       0.44028000       0.45649840
    24  N          0.71896180       0.94028000       0.04350160
    25  C          0.54142000       0.70943000       0.46122190
    26  C          0.45858000       0.20943000       0.03877810
    27  C          0.45858000       0.29057000       0.53877810
    28  C          0.54142000       0.79057000       0.96122190
    29  C          0.63213000       0.70454000       0.64662000
    30  C          0.36787000       0.20454000       0.85338000
    31  C          0.36787000       0.29546000       0.35338000
    32  C          0.63213000       0.79546000       0.14662000
    33  H          0.63454000       0.73484400       0.71329100
    34  H          0.36546000       0.23484400       0.78670900
    35  H          0.36546000       0.26515600       0.28670900
    36  H          0.63454000       0.76515600       0.21329100
    37  C          0.54153000       0.75793000       0.55802000
    38  C          0.45847000       0.25793000       0.94198000
    39  C          0.45847000       0.24207000       0.44198000
    40  C          0.54153000       0.74207000       0.05802000
    41  H          0.48186100       0.82506800       0.56312800
    42  H          0.51813900       0.32506800       0.93687200
    43  H          0.51813900       0.17493200       0.43687200
    44  H          0.48186100       0.67493200       0.06312800
    45  Cl         0.73637500      -0.00620200       0.40688500
    46  Cl         0.26362500       0.49379800       0.09311500
    47  Cl         0.26362500       0.00620200       0.59311500
    48  Cl         0.73637500       0.50620200       0.90688500
    49  O          0.19270160       0.57852000       0.64300130
    50  O          0.80729840       0.07852000       0.85699870
    51  O          0.80729840       0.42148000       0.35699870
    52  O          0.19270160       0.92148000       0.14300130
    53  C          0.93252000       0.81262000       0.49725180
    54  C          0.06748000       0.31262000       0.00274820
    55  C          0.06748000       0.18738000       0.50274820
    56  C          0.93252000       0.68738000      -0.00274820
    57  H          0.92534300       0.78466500       0.42895400
    58  H          0.07465700       0.28466500       0.07104600
    59  H          0.07465700       0.21533500       0.57104600
    60  H          0.92534300       0.71533500       0.92895400
    61  C          0.03332000       0.79213000       0.68410180
    62  C          0.96668000       0.29213000       0.81589820
    63  C          0.96668000       0.20787000       0.31589820
    64  C          0.03332000       0.70787000       0.18410180
    65  H          0.09454900       0.74992600       0.74216300
    66  H          0.90545100       0.24992600       0.75783700
    67  H          0.90545100       0.25007400       0.25783700
    68  H          0.09454900       0.75007400       0.24216300
    69  C          0.86042000       0.95723000       0.61464190
    70  C          0.13958000       0.45723000       0.88535810
    71  C          0.13958000       0.04277000       0.38535810
    72  C          0.86042000       0.54277000       0.11464190
    73  H          0.80523800       0.02716900       0.62497400
    74  H          0.19476200       0.52716900       0.87502600
    75  H          0.19476200       0.97283100       0.37502600
    76  H          0.80523800       0.47283100       0.12497400
    77  O          0.10758170       0.62342000       0.47130130
    78  O          0.89241830       0.12342000       0.02869870
    79  O          0.89241830       0.37658000       0.52869870
    80  O          0.10758170       0.87658000       0.97130130
    81  C          0.11722000       0.64243000       0.56986180
    82  C          0.88278000       0.14243000       0.93013820
    83  C          0.88278000       0.35757000       0.43013820
    84  C          0.11722000       0.85757000       0.06986180
    85  C          0.02492000       0.75152000       0.58333190
    86  C          0.97508000       0.25152000       0.91666810
    87  C          0.97508000       0.24848000       0.41666810
    88  C          0.02492000       0.74848000       0.08333190
    89  C          0.85182000       0.91493000       0.51411170
    90  C          0.14818000       0.41493000       0.98588830
    91  C          0.14818000       0.08507000       0.48588830
    92  C          0.85182000       0.58507000       0.01411170
    93  C          0.95112000       0.89493000       0.69860190
    94  C          0.04888000       0.39493000       0.80139810
    95  C          0.04888000       0.10507000       0.30139810
    96  C          0.95112000       0.60507000       0.19860190
    97  H          0.95742800       0.92242400       0.76676600
    98  H          0.04257200       0.42242400       0.73323400
    99  H          0.04257200       0.07757600       0.23323400
   100  H          0.95742800       0.57757600       0.26676600
   101  H          0.16630000       0.56940000       0.46820000
   102  H          0.83370000       0.06940000       0.03180000
   103  H          0.83370000       0.43060000       0.53180000
   104  H          0.16630000       0.93060000       0.96820000
