data_CERFIS
_symmetry_space_group_name_H-M    'P1'
_symmetry_Int_Tables_number       1
loop_
_symmetry_equiv_pos_site_id
_symmetry_equiv_pos_as_xyz
1 x,y,z
_cell_length_a                   12.47068
_cell_length_b                   8.77946
_cell_length_c                   12.80449
_cell_angle_alpha                90.0
_cell_angle_beta                 107.0117
_cell_angle_gamma                90.0
loop_
_atom_site_label
_atom_site_type_symbol
_atom_site_fract_x
_atom_site_fract_y
_atom_site_fract_z
     1  I          0.08032300       0.81941400       0.67751300
     2  I          0.91967700       0.31941400       0.82248700
     3  I          0.91967700       0.18058600       0.32248700
     4  I          0.08032300       0.68058600       0.17751300
     5  O          0.62233000       0.40174000       0.46863000
     6  O          0.37767000       0.90174000       0.03137000
     7  O          0.37767000       0.59826000       0.53137000
     8  O          0.62233000       0.09826000       0.96863000
     9  H          0.58302100       0.34787100       0.49486500
    10  H          0.41697900       0.84787100       0.00513500
    11  H          0.41697900       0.65212900       0.50513500
    12  H          0.58302100       0.15212900      -0.00513500
    13  O          0.70073000       0.46414000       0.64373000
    14  O          0.29927000       0.96414000       0.85627000
    15  O          0.29927000       0.53586000       0.35627000
    16  O          0.70073000       0.03586000       0.14373000
    17  C          0.78464000       0.55685000       0.51144000
    18  C          0.21536000       0.05685000       0.98856000
    19  C          0.21536000       0.44315000       0.48856000
    20  C          0.78464000       0.94315000       0.01144000
    21  C          0.95074000       0.71065000       0.55864000
    22  C          0.04926000       0.21065000       0.94136000
    23  C          0.04926000       0.28935000       0.44136000
    24  C          0.95074000       0.78935000       0.05864000
    25  C          0.86994000       0.63015000       0.58974000
    26  C          0.13006000       0.13015000       0.91026000
    27  C          0.13006000       0.36985000       0.41026000
    28  C          0.86994000       0.86985000       0.08974000
    29  H          0.87268700       0.62493300       0.66300700
    30  H          0.12731300       0.12493300       0.83699300
    31  H          0.12731300       0.37506700       0.33699300
    32  H          0.87268700       0.87506700       0.16300700
    33  C          0.69894000       0.47075000       0.54804000
    34  C          0.30106000       0.97075000       0.95196000
    35  C          0.30106000       0.52925000       0.45196000
    36  C          0.69894000       0.02925000       0.04804000
    37  C          0.78145000       0.56466000       0.40304000
    38  C          0.21855000       0.06466000       0.09696000
    39  C          0.21855000       0.43534000       0.59696000
    40  C          0.78145000       0.93534000       0.90304000
    41  H          0.72503300       0.51456200       0.35033000
    42  H          0.27496700       0.01456200       0.14967000
    43  H          0.27496700       0.48543800       0.64967000
    44  H          0.72503300      -0.01456200       0.85033000
    45  C          0.94745000       0.71896000       0.45044000
    46  C          0.05255000       0.21896000       0.04956000
    47  C          0.05255000       0.28104000       0.54956000
    48  C          0.94745000       0.78104000       0.95044000
    49  H          0.00216700       0.77257400       0.42976800
    50  H         -0.00216700       0.27257400       0.07023200
    51  H         -0.00216700       0.22742600       0.57023200
    52  H          0.00216700       0.72742600       0.92976800
    53  C          0.86186000       0.64647000       0.37284000
    54  C          0.13814000       0.14647000       0.12716000
    55  C          0.13814000       0.35353000       0.62716000
    56  C          0.86186000       0.85353000       0.87284000
    57  H          0.85841200       0.65305800       0.29940600
    58  H          0.14158800       0.15305800       0.20059400
    59  H          0.14158800       0.34694200       0.70059400
    60  H          0.85841200       0.84694200       0.79940600
    61  Br         0.22408500       0.94622400       0.40713400
    62  Br         0.77591500       0.44622400       0.09286600
    63  Br         0.77591500       0.05377600       0.59286600
    64  Br         0.22408500       0.55377600       0.90713400
    65  N          0.48734000       0.22905000       0.54474000
    66  N          0.51266000       0.72905000       0.95526000
    67  N          0.51266000       0.77095000       0.45526000
    68  N          0.48734000       0.27095000       0.04474000
    69  C          0.33874000       0.05175000       0.51234000
    70  C          0.66126000       0.55175000       0.98766000
    71  C          0.66126000       0.94825000       0.48766000
    72  C          0.33874000       0.44825000       0.01234000
    73  C          0.40454000       0.15386000       0.47784000
    74  C          0.59546000       0.65386000       0.02216000
    75  C          0.59546000       0.84614000       0.52216000
    76  C          0.40454000       0.34614000       0.97784000
    77  H          0.38964500       0.17051300       0.40321000
    78  H          0.61035500       0.67051300       0.09679000
    79  H          0.61035500       0.82948700       0.59679000
    80  H          0.38964500       0.32948700       0.90321000
    81  C          0.35845000       0.02716000       0.62324000
    82  C          0.64155000       0.52716000       0.87676000
    83  C          0.64155000       0.97284000       0.37676000
    84  C          0.35845000       0.47284000       0.12324000
    85  H          0.31424300       0.96016500       0.64901800
    86  H          0.68575700       0.46016500       0.85098200
    87  H          0.68575700       0.03983500       0.35098200
    88  H          0.31424300       0.53983500       0.14901800
    89  C          0.44565000       0.10537000       0.69385000
    90  C          0.55435000       0.60537000       0.80615000
    91  C          0.55435000       0.89463000       0.30615000
    92  C          0.44565000       0.39463000       0.19385000
    93  H          0.46208400       0.09146200       0.76883300
    94  H          0.53791600       0.59146200       0.73116700
    95  H          0.53791600       0.90853800       0.23116700
    96  H          0.46208400       0.40853800       0.26883300
    97  C          0.50775000       0.20326000       0.65225000
    98  C          0.49225000       0.70326000       0.84775000
    99  C          0.49225000       0.79674000       0.34775000
   100  C          0.50775000       0.29674000       0.15225000
   101  H          0.56689200       0.25452800       0.70061600
   102  H          0.43310800       0.75452800       0.79938400
   103  H          0.43310800       0.74547200       0.29938400
   104  H          0.56689200       0.24547200       0.20061600
