data_CERGAL
_symmetry_space_group_name_H-M    'P1'
_symmetry_Int_Tables_number       1
loop_
_symmetry_equiv_pos_site_id
_symmetry_equiv_pos_as_xyz
1 x,y,z
_cell_length_a                   11.86086
_cell_length_b                   8.65865
_cell_length_c                   13.63598
_cell_angle_alpha                90.0
_cell_angle_beta                 110.2007
_cell_angle_gamma                90.0
loop_
_atom_site_label
_atom_site_type_symbol
_atom_site_fract_x
_atom_site_fract_y
_atom_site_fract_z
     1  I          0.09288300       0.78593400       0.67719300
     2  I          0.90711700       0.28593400       0.82280700
     3  I          0.90711700       0.21406600       0.32280700
     4  I          0.09288300       0.71406600       0.17719300
     5  N          0.78444000       0.55895000       0.46293000
     6  N          0.21556000       0.05895000       0.03707000
     7  N          0.21556000       0.44105000       0.53707000
     8  N          0.78444000       0.94105000       0.96293000
     9  C          0.95974000       0.70716000       0.54144000
    10  C          0.04026000       0.20716000       0.95856000
    11  C          0.04026000       0.29284000       0.45856000
    12  C          0.95974000       0.79284000       0.04144000
    13  C          0.87134000       0.60986000       0.54734000
    14  C          0.12866000       0.10986000       0.95266000
    15  C          0.12866000       0.39014000       0.45266000
    16  C          0.87134000       0.89014000       0.04734000
    17  H          0.87208800       0.57836300       0.61272300
    18  H          0.12791200       0.07836300       0.88727700
    19  H          0.12791200       0.42163700       0.38727700
    20  H          0.87208800       0.92163700       0.11272300
    21  C          0.78375000       0.60506000       0.37034000
    22  C          0.21625000       0.10506000       0.12966000
    23  C          0.21625000       0.39494000       0.62966000
    24  C          0.78375000       0.89494000       0.87034000
    25  H          0.72258000       0.57091800       0.31078100
    26  H          0.27742000       0.07091800       0.18921900
    27  H          0.27742000       0.42908200       0.68921900
    28  H          0.72258000       0.92908200       0.81078100
    29  C          0.95915000       0.75407000       0.44604000
    30  C          0.04085000       0.25407000       0.05396000
    31  C          0.04085000       0.24593000       0.55396000
    32  C          0.95915000       0.74593000       0.94604000
    33  H          0.01799400       0.82028700       0.43987800
    34  H          0.98200600       0.32028700       0.06012200
    35  H          0.98200600       0.17971300       0.56012200
    36  H          0.01799400       0.67971300       0.93987800
    37  C          0.86955000       0.70107000       0.35934000
    38  C          0.13045000       0.20107000       0.14066000
    39  C          0.13045000       0.29893000       0.64066000
    40  C          0.86955000       0.79893000       0.85934000
    41  H          0.86717300       0.73044400       0.29303000
    42  H          0.13282700       0.23044400       0.20697000
    43  H          0.13282700       0.26955600       0.70697000
    44  H          0.86717300       0.76955600       0.79303000
    45  Br         0.23494400       0.00228600       0.40589400
    46  Br         0.76505600       0.50228600       0.09410600
    47  Br         0.76505600      -0.00228600       0.59410600
    48  Br         0.23494400       0.49771400       0.90589400
    49  O          0.60973000       0.38025000       0.47662000
    50  O          0.39027000       0.88025000       0.02338000
    51  O          0.39027000       0.61975000       0.52338000
    52  O          0.60973000       0.11975000       0.97662000
    53  H          0.66972400       0.42471900       0.47415100
    54  H          0.33027600       0.92471900       0.02584900
    55  H          0.33027600       0.57528100       0.52584900
    56  H          0.66972400       0.07528100       0.97415100
    57  O          0.69373000       0.42394000       0.64632000
    58  O          0.30627000       0.92394000       0.85368000
    59  O          0.30627000       0.57606000       0.35368000
    60  O          0.69373000       0.07606000       0.14632000
    61  C          0.52654000       0.25435000       0.58903000
    62  C          0.47346000       0.75435000       0.91097000
    63  C          0.47346000       0.74565000       0.41097000
    64  C          0.52654000       0.24565000       0.08903000
    65  C          0.35734000       0.09095000       0.52263000
    66  C          0.64266000       0.59095000       0.97737000
    67  C          0.64266000       0.90905000       0.47737000
    68  C          0.35734000       0.40905000       0.02263000
    69  C          0.43794000       0.19115000       0.50483000
    70  C          0.56206000       0.69115000      -0.00483000
    71  C          0.56206000       0.80885000       0.49517000
    72  C          0.43794000       0.30885000       0.00483000
    73  H          0.43262400       0.21579400       0.43698400
    74  H          0.56737600       0.71579400       0.06301600
    75  H          0.56737600       0.78420600       0.56301600
    76  H          0.43262400       0.28420600       0.93698400
    77  C          0.61914000       0.36036000       0.57574000
    78  C          0.38086000       0.86036000       0.92426000
    79  C          0.38086000       0.63964000       0.42426000
    80  C          0.61914000       0.13964000       0.07574000
    81  C          0.53394000       0.21456000       0.69004000
    82  C          0.46606000       0.71456000       0.80996000
    83  C          0.46606000       0.78544000       0.30996000
    84  C          0.53394000       0.28544000       0.19004000
    85  H          0.59409600       0.25658600       0.74706600
    86  H          0.40590400       0.75658600       0.75293400
    87  H          0.40590400       0.74341400       0.25293400
    88  H          0.59409600       0.24341400       0.24706600
    89  C          0.36454000       0.05086000       0.62174000
    90  C          0.63546000       0.55086000       0.87826000
    91  C          0.63546000       0.94914000       0.37826000
    92  C          0.36454000       0.44914000       0.12174000
    93  H          0.30983300       0.98149000       0.63216000
    94  H          0.69016700       0.48149000       0.86784000
    95  H          0.69016700       0.01851000       0.36784000
    96  H          0.30983300       0.51851000       0.13216000
    97  C          0.45345000       0.11446000       0.70534000
    98  C          0.54655000       0.61446000       0.79466000
    99  C          0.54655000       0.88554000       0.29466000
   100  C          0.45345000       0.38554000       0.20534000
   101  H          0.45846000       0.08878700       0.77296200
   102  H          0.54154000       0.58878700       0.72703800
   103  H          0.54154000       0.91121300       0.22703800
   104  H          0.45846000       0.41121300       0.27296200
