data_CETJOE
_symmetry_space_group_name_H-M    'P1'
_symmetry_Int_Tables_number       1
loop_
_symmetry_equiv_pos_site_id
_symmetry_equiv_pos_as_xyz
1 x,y,z
_cell_length_a                   4.508001
_cell_length_b                   15.16174
_cell_length_c                   22.90026
_cell_angle_alpha                90.0
_cell_angle_beta                 94.8912
_cell_angle_gamma                90.0
loop_
_atom_site_label
_atom_site_type_symbol
_atom_site_fract_x
_atom_site_fract_y
_atom_site_fract_z
     1  I          0.82112500       0.54541200       0.30417200
     2  I          0.67887500       0.04541200       0.19582800
     3  I          0.17887500       0.45458800       0.69582800
     4  I          0.32112500       0.95458800       0.80417200
     5  I          0.62363700       0.67612200       0.22547200
     6  I          0.87636300       0.17612200       0.27452800
     7  I          0.37636300       0.32387800       0.77452800
     8  I          0.12363700       0.82387800       0.72547200
     9  N          0.70636000       0.47247190       0.43948120
    10  N          0.79364000       0.97247190       0.06051880
    11  N          0.29364000       0.52752810       0.56051880
    12  N          0.20636000       0.02752810       0.93948120
    13  N          0.00296000       0.42162000       0.37017130
    14  N          0.49704000       0.92162000       0.12982870
    15  N         -0.00296000       0.57838000       0.62982870
    16  N          0.50296000       0.07838000       0.87017130
    17  C          0.60897000       0.46612000       0.49228150
    18  C          0.89103000       0.96612000       0.00771850
    19  C          0.39103000       0.53388000       0.50771850
    20  C          0.10897000       0.03388000       0.99228150
    21  C          0.69918000       0.39832000       0.53235150
    22  C          0.80082000       0.89832000       0.96764850
    23  C          0.30082000       0.60168000       0.46764850
    24  C          0.19918000       0.10168000       0.03235150
    25  H          0.62310000       0.39580000       0.56880000
    26  H          0.87690000       0.89580000       0.93120000
    27  H          0.37690000       0.60420000       0.43120000
    28  H          0.12310000       0.10420000       0.06880000
    29  C          0.89818000       0.33692000       0.51699160
    30  C          0.60182000       0.83692000       0.98300840
    31  C          0.10182000       0.66308000       0.48300840
    32  C          0.39818000       0.16308000       0.01699160
    33  H          0.96170000       0.29240000       0.54300000
    34  H          0.53830000       0.79240000       0.95700000
    35  H          0.03830000       0.70760000       0.45700000
    36  H          0.46170000       0.20760000       0.04300000
    37  C          0.00697000       0.34162000       0.46110150
    38  C          0.49303000       0.84162000       0.03889850
    39  C         -0.00697000       0.65838000       0.53889850
    40  C          0.50697000       0.15838000       0.96110150
    41  C          0.90337000       0.41192000       0.42451140
    42  C          0.59663000       0.91192000       0.07548860
    43  C          0.09663000       0.58808000       0.57548860
    44  C          0.40337000       0.08808000       0.92451140
    45  C          0.21268000       0.28202000       0.44041170
    46  C          0.28732000       0.78202000       0.05958830
    47  C          0.78732000       0.71798000       0.55958830
    48  C          0.71268000       0.21798000       0.94041170
    49  H          0.28330000       0.23500000       0.46370000
    50  H          0.21670000       0.73500000       0.03630000
    51  H          0.71670000       0.76500000       0.53630000
    52  H          0.78330000       0.26500000       0.96370000
    53  C          0.30718000       0.29363000       0.38631170
    54  C          0.19282000       0.79363000       0.11368830
    55  C          0.69282000       0.70637000       0.61368830
    56  C          0.80718000       0.20637000       0.88631170
    57  H          0.44330000       0.25480000       0.37200000
    58  H          0.05670000       0.75480000       0.12800000
    59  H          0.55670000       0.74520000       0.62800000
    60  H          0.94330000       0.24520000       0.87200000
    61  C          0.19588000       0.36533000       0.35210160
    62  C          0.30412000       0.86533000       0.14789840
    63  C          0.80412000       0.63467000       0.64789840
    64  C          0.69588000       0.13467000       0.85210160
    65  H          0.26200000       0.37310000       0.31510000
    66  H          0.23800000       0.87310000       0.18490000
    67  H          0.73800000       0.62690000       0.68490000
    68  H          0.76200000       0.12690000       0.81510000
    69  N          0.17687000       0.09202000       0.53702140
    70  N          0.32313000       0.59202000       0.96297860
    71  N          0.82313000       0.90798000       0.46297860
    72  N          0.67687000       0.40798000       0.03702140
    73  N          0.43958000       0.19712000       0.59243150
    74  N          0.06042000       0.69712000       0.90756850
    75  N          0.56042000       0.80288000       0.40756850
    76  N          0.93958000       0.30288000       0.09243150
    77  C          0.11498000       0.00863000       0.52471160
    78  C          0.38502000       0.50863000       0.97528840
    79  C          0.88502000      -0.00863000       0.47528840
    80  C          0.61498000       0.49137000       0.02471160
    81  C          0.25419000       0.93747000       0.55605190
    82  C          0.24581000       0.43747000       0.94394810
    83  C          0.74581000       0.06253000       0.44394810
    84  C          0.75419000       0.56253000       0.05605190
    85  H          0.20450000       0.87960000       0.54580000
    86  H          0.29550000       0.37960000       0.95420000
    87  H          0.79550000       0.12040000       0.45420000
    88  H          0.70450000       0.62040000       0.04580000
    89  C          0.46009000       0.95437000       0.60105190
    90  C          0.03991000       0.45437000       0.89894810
    91  C          0.53991000       0.04563000       0.39894810
    92  C          0.96009000       0.54563000       0.10105190
    93  H          0.55360000       0.90820000       0.62200000
    94  H          0.94640000       0.40820000       0.87800000
    95  H          0.44640000       0.09180000       0.37800000
    96  H          0.05360000       0.59180000       0.12200000
    97  C          0.53219000       0.04213000       0.61595170
    98  C         -0.03219000       0.54213000       0.88404830
    99  C          0.46781000       0.95787000       0.38404830
   100  C          0.03219000       0.45787000       0.11595170
   101  C          0.38389000       0.11013000       0.58199160
   102  C          0.11611000       0.61013000       0.91800840
   103  C          0.61611000       0.88987000       0.41800840
   104  C          0.88389000       0.38987000       0.08199160
   105  C          0.74261000       0.06783000       0.66199190
   106  C          0.75739000       0.56783000       0.83800810
   107  C          0.25739000       0.93217000       0.33800810
   108  C          0.24261000       0.43217000       0.16199190
   109  H          0.84430000       0.02550000       0.68530000
   110  H          0.65570000       0.52550000       0.81470000
   111  H          0.15570000       0.97450000       0.31470000
   112  H          0.34430000       0.47450000       0.18530000
   113  C          0.79451100       0.15443000       0.67181190
   114  C          0.70548900       0.65443000       0.82818810
   115  C          0.20548900       0.84557000       0.32818810
   116  C          0.29451100       0.34557000       0.17181190
   117  H          0.93210000       0.17280000       0.70190000
   118  H          0.56790000       0.67280000       0.79810000
   119  H          0.06790000       0.82720000       0.29810000
   120  H          0.43210000       0.32720000       0.20190000
   121  C          0.63711100       0.21593000       0.63580190
   122  C          0.86288900       0.71593000       0.86419810
   123  C          0.36288900       0.78407000       0.36419810
   124  C          0.13711100       0.28407000       0.13580190
   125  H          0.67620000       0.27520000       0.64330000
   126  H          0.82380000       0.77520000       0.85670000
   127  H          0.32380000       0.72480000       0.35670000
   128  H          0.17620000       0.22480000       0.14330000
