data_CEXDOC
_symmetry_space_group_name_H-M    'P1'
_symmetry_Int_Tables_number       1
loop_
_symmetry_equiv_pos_site_id
_symmetry_equiv_pos_as_xyz
1 x,y,z
_cell_length_a                   7.057417
_cell_length_b                   9.5822
_cell_length_c                   16.2244
_cell_angle_alpha                81.6037
_cell_angle_beta                 89.5776
_cell_angle_gamma                77.3027
loop_
_atom_site_label
_atom_site_type_symbol
_atom_site_fract_x
_atom_site_fract_y
_atom_site_fract_z
     1  Br         0.06249300       0.03491200       0.25077200
     2  Br         0.93750700       0.96508800       0.74922800
     3  O          0.32002000       0.70396160       0.18760900
     4  O          0.67998000       0.29603840       0.81239100
     5  O          0.85712000       0.83240170       0.35132900
     6  O          0.14288000       0.16759830       0.64867100
     7  H          0.80675400       0.77195300       0.37871000
     8  H          0.19324600       0.22804700       0.62129000
     9  O          0.83963000       0.11389180       0.08821100
    10  O          0.16037000       0.88610820       0.91178900
    11  H          0.78611600       0.12860100       0.04207500
    12  H          0.21388400       0.87139900       0.95792500
    13  O          0.30442000       0.85134180       0.06775100
    14  O          0.69558000       0.14865820       0.93224900
    15  C          0.53643000       0.86352000       0.16961120
    16  C          0.46357000       0.13648000       0.83038880
    17  C          0.84663000       0.96722000       0.21871120
    18  C          0.15337000       0.03278000       0.78128880
    19  C          0.37513000       0.80532000       0.13762130
    20  C          0.62487000       0.19468000       0.86237870
    21  C          0.61673000       0.81582000       0.24978120
    22  C          0.38327000       0.18418000       0.75021880
    23  H          0.56736400       0.74877800       0.28609400
    24  H          0.43263600       0.25122200       0.71390600
    25  C          0.77223000       0.86982000       0.27499130
    26  C          0.22777000       0.13018000       0.72500870
    27  C          0.60643000       0.96532000       0.11613130
    28  C          0.39357000       0.03468000       0.88386870
    29  H          0.54747700      -0.00051600       0.06380800
    30  H          0.45252300       0.00051600       0.93619200
    31  C          0.76313000       0.01702000       0.13946130
    32  C          0.23687000       0.98298000       0.86053870
    33  H          0.21550000       0.67640000       0.16720000
    34  H          0.78450000       0.32360000       0.83280000
    35  N          0.73812000       0.64674180       0.46976110
    36  N          0.26188000       0.35325820       0.53023890
    37  C          0.66253000       0.58802000       0.61592130
    38  C          0.33747000       0.41198000       0.38407870
    39  C          0.68573000       0.68862000       0.54358130
    40  C          0.31427000       0.31138000       0.45641870
    41  C          0.82803000       0.46042000       0.38551140
    42  C          0.17197000       0.53958000       0.61448860
    43  H          0.84183300       0.52898000       0.34033800
    44  H          0.15816700       0.47102000       0.65966200
    45  C          0.77183000       0.50422000       0.46310130
    46  C          0.22817000       0.49578000       0.53689870
    47  C          0.75443000       0.39642000       0.53234130
    48  C          0.24557000       0.60358000       0.46765870
    49  C          0.79403000       0.24842000       0.51979140
    50  C          0.20597000       0.75158000       0.48020860
    51  H          0.78390900       0.17713000       0.56404500
    52  H          0.21609100       0.82287000       0.43595500
    53  C          0.69983000       0.44172000       0.60790130
    54  C          0.30017000       0.55828000       0.39209870
    55  H          0.68777800       0.37388000       0.65376100
    56  H          0.31222200       0.62612000       0.34623900
    57  C          0.65253000       0.83812000       0.55119140
    58  C          0.34747000       0.16188000       0.44880860
    59  H          0.66892700       0.90461300       0.50537400
    60  H          0.33107300       0.09538700       0.49462600
    61  C          0.60353000       0.64163000       0.69139140
    62  C          0.39647000       0.35837000       0.30860860
    63  H          0.58593300       0.57755600       0.73821800
    64  H          0.41406700       0.42244400       0.26178200
    65  C          0.57233000       0.78553000       0.69594150
    66  C          0.42767000       0.21447000       0.30405850
    67  H          0.53473100       0.81912800       0.74582200
    68  H          0.46526900       0.18087200       0.25417800
    69  C          0.59723000       0.88452000       0.62451150
    70  C          0.40277000       0.11548000       0.37548850
    71  H          0.57520200       0.98271400       0.62819300
    72  H          0.42479800       0.01728600       0.37180700
    73  C          0.86223000       0.31762000       0.37662150
    74  C          0.13777000       0.68238000       0.62337850
    75  H          0.89672400       0.29016800       0.32493900
    76  H          0.10327600       0.70983200       0.67506100
    77  C          0.84603000       0.21082000       0.44451160
    78  C          0.15397000       0.78918000       0.55548840
    79  H          0.87123400       0.11400100       0.43728400
    80  H          0.12876600       0.88599900       0.56271600
    81  N          0.03253000       0.61702000       0.12532120
    82  N          0.96747000       0.38298000       0.87467880
    83  C          0.72097000       0.52352000       0.06211140
    84  C          0.27903000       0.47648000       0.93788860
    85  C          0.82717000       0.44813000       0.13293150
    86  C          0.17283000       0.55187000       0.86706850
    87  H          0.79573200       0.36443500       0.16059200
    88  H          0.20426800       0.63556500       0.83940800
    89  C          0.55827000       0.46952000       0.03210150
    90  C          0.44173000       0.53048000       0.96789850
    91  H          0.53596300       0.38391300       0.06136400
    92  H          0.46403700       0.61608700       0.93863600
    93  C          0.77757000       0.64642000       0.02392150
    94  C          0.22243000       0.35358000       0.97607850
    95  H          0.71217300       0.69972400       0.97598400
    96  H          0.28782700       0.30027600       0.02401600
    97  C          0.97977000       0.49803000       0.16198150
    98  C          0.02023000       0.50197000       0.83801850
    99  H          0.04910200       0.44607200       0.20938000
   100  H          0.95089800       0.55392800       0.79062000
   101  C          0.93177000       0.68973000       0.05717150
   102  C          0.06823000       0.31027000       0.94282850
   103  H          0.96662200       0.77302200       0.03088200
   104  H          0.03337800       0.22697800       0.96911800
