data_CEXJEY
_symmetry_space_group_name_H-M    'P1'
_symmetry_Int_Tables_number       1
loop_
_symmetry_equiv_pos_site_id
_symmetry_equiv_pos_as_xyz
1 x,y,z
_cell_length_a                   9.2208
_cell_length_b                   9.7378
_cell_length_c                   12.2109
_cell_angle_alpha                109.483
_cell_angle_beta                 96.893
_cell_angle_gamma                90.45118
loop_
_atom_site_label
_atom_site_type_symbol
_atom_site_fract_x
_atom_site_fract_y
_atom_site_fract_z
     1  N          0.39623000       0.10253000       0.02923000
     2  N          0.60377000       0.89747000       0.97077000
     3  C          0.35904000       0.97096000       0.94706000
     4  C          0.64096000       0.02904000       0.05294000
     5  C          0.53364000       0.13244000       0.08164000
     6  C          0.46636000       0.86756000       0.91836000
     7  C          0.56856000       0.28235000       0.17175000
     8  C          0.43144000       0.71765000       0.82825000
     9  H          0.48307300       0.33862600       0.17548200
    10  H          0.51692700       0.66137400       0.82451800
    11  H          0.64601800       0.33021500       0.14999500
    12  H          0.35398200       0.66978500       0.85000500
    13  H          0.59857000       0.27335300       0.24696800
    14  H          0.40143000       0.72664700       0.75303200
    15  C          0.20285000       0.94204000       0.89195000
    16  C          0.79715000       0.05796000       0.10805000
    17  H          0.14481700       0.01789300       0.93509600
    18  H          0.85518300      -0.01789300       0.06490400
    19  H          0.16733200       0.84975300       0.89318300
    20  H          0.83266800       0.15024700       0.10681700
    21  H          0.19617100       0.94030000       0.81248300
    22  H          0.80382900       0.05970000       0.18751700
    23  I          0.79787300       0.66856300       0.26952200
    24  I          0.20212700       0.33143700       0.73047800
    25  C          0.94494000       0.50054000       0.25113000
    26  C          0.05506000       0.49946000       0.74887000
    27  C          0.12254000       0.35694000       0.14213000
    28  C          0.87746000       0.64306000       0.85787000
    29  O          0.19164000       0.32123000       0.04583000
    30  O          0.80836000       0.67877000       0.95417000
    31  H          0.24709900       0.25588200       0.04618900
    32  H          0.75290100       0.74411800       0.95381100
    33  C          0.07734000       0.33454000       0.32533000
    34  C          0.92266000       0.66546000       0.67467000
    35  O          0.10294000       0.27664000       0.41303000
    36  O          0.89706000       0.72336000       0.58697000
    37  H          0.17434700       0.22639500       0.40286000
    38  H          0.82565300       0.77360500       0.59714000
    39  C          0.01764000       0.46154000       0.15293000
    40  C          0.98236000       0.53846000       0.84707000
    41  H         -0.00308500       0.50415700       0.09548700
    42  H          0.00308500       0.49584300       0.90451300
    43  C          0.15304000       0.29374000       0.22833000
    44  C          0.84696000       0.70626000       0.77167000
    45  H          0.22361400       0.22464800       0.22125600
    46  H          0.77638600       0.77535200       0.77874400
    47  C          0.97094000       0.43784000       0.33663000
    48  C          0.02906000       0.56216000       0.66337000
    49  H          0.91877000       0.46350200       0.40057000
    50  H          0.08123000       0.53649800       0.59943000
    51  C          0.32424000       0.97164000       0.28774000
    52  C          0.67576000       0.02836000       0.71226000
    53  N          0.58063000       0.92294000       0.29583000
    54  N          0.41937000       0.07706000       0.70417000
    55  N          0.34744000       0.10124000       0.37433000
    56  N          0.65256000       0.89876000       0.62567000
    57  C          0.60514000       0.05324000       0.38284000
    58  C          0.39486000       0.94676000       0.61716000
    59  C          0.48604000       0.14344000       0.42203000
    60  C          0.51396000       0.85656000       0.57797000
    61  C          0.44334000       0.88264000       0.24774000
    62  C          0.55666000       0.11736000       0.75226000
    63  C          0.41125000       0.74655000       0.15364000
    64  C          0.58875000       0.25345000       0.84636000
    65  H          0.48673500       0.68707400       0.12610000
    66  H          0.51326500       0.31292600       0.87390000
    67  C          0.27125000       0.70455000       0.10505000
    68  C          0.72875000       0.29545000       0.89495000
    69  H          0.25158700       0.61563200       0.04460700
    70  H          0.74841300       0.38436800       0.95539300
    71  C          0.17794000       0.92215000       0.23274000
    72  C          0.82206000       0.07785000       0.76726000
    73  H          0.09957800       0.97868700       0.25781800
    74  H          0.90042200       0.02131300       0.74218200
    75  C          0.75065000       0.10285000       0.43524000
    76  C          0.24935000       0.89715000       0.56476000
    77  H          0.82830200       0.04483700       0.41088300
    78  H          0.17169800       0.95516300       0.58911700
    79  C          0.51866000       0.28165000       0.51244000
    80  C          0.48134000       0.71835000       0.48756000
    81  H          0.44360500       0.34257600       0.53861300
    82  H          0.55639500       0.65742400       0.46138700
    83  C          0.77586000       0.23536000       0.52095000
    84  C          0.22414000       0.76464000       0.47905000
    85  H          0.87135100       0.26784700       0.55411200
    86  H          0.12864900       0.73215300       0.44588800
    87  C          0.66016000       0.32376000       0.56005000
    88  C          0.33984000       0.67624000       0.43995000
    89  H          0.68043200       0.41306400       0.61965700
    90  H          0.31956800       0.58693600       0.38034300
    91  C          0.15415000       0.79315000       0.14415000
    92  C          0.84585000       0.20685000       0.85585000
    93  H          0.05919300       0.76207300       0.10828000
    94  H          0.94080700       0.23792700       0.89172000
