data_CEXLEA
_symmetry_space_group_name_H-M    'P1'
_symmetry_Int_Tables_number       1
loop_
_symmetry_equiv_pos_site_id
_symmetry_equiv_pos_as_xyz
1 x,y,z
_cell_length_a                   8.4402
_cell_length_b                   8.9672
_cell_length_c                   14.7684
_cell_angle_alpha                83.7946
_cell_angle_beta                 77.3245
_cell_angle_gamma                85.1636
loop_
_atom_site_label
_atom_site_type_symbol
_atom_site_fract_x
_atom_site_fract_y
_atom_site_fract_z
     1  Br         0.52958600       0.07455500       0.73320300
     2  Br         0.47041400       0.92544500       0.26679700
     3  O          0.22875000       0.78284000       0.83763000
     4  O          0.77125000       0.21716000       0.16237000
     5  O          0.30604000       0.31464000       0.66342000
     6  O          0.69396000       0.68536000       0.33658000
     7  H          0.26158000       0.38484200       0.63602500
     8  H          0.73842000       0.61515800       0.36397500
     9  O          0.63365000       0.20984000       0.88552000
    10  O          0.36635000       0.79016000       0.11448000
    11  H          0.64016100       0.23574600       0.93606700
    12  H          0.35983900       0.76425400       0.06393300
    13  O          0.39665000       0.73594000       0.93603000
    14  O          0.60335000       0.26406000       0.06397000
    15  C          0.36166000       0.36525000       0.73203000
    16  C          0.63834000       0.63475000       0.26797000
    17  C          0.47006000       0.26665000       0.77373000
    18  C          0.52994000       0.73335000       0.22627000
    19  C          0.31876000       0.50715000       0.76383000
    20  C          0.68124000       0.49285000       0.23617000
    21  H          0.24681600       0.57291900       0.73717500
    22  H          0.75318400       0.42708100       0.26282500
    23  C          0.53226000       0.31075000       0.84613000
    24  C          0.46774000       0.68925000       0.15387000
    25  C          0.38356000       0.55065000       0.83543000
    26  C          0.61644000       0.44935000       0.16457000
    27  C          0.33706000       0.69795000       0.87383000
    28  C          0.66294000       0.30205000       0.12617000
    29  C          0.49126000       0.45375000       0.87473000
    30  C          0.50874000       0.54625000       0.12527000
    31  H          0.53665400       0.48471100       0.92095500
    32  H          0.46334600       0.51528900       0.07904500
    33  N          0.15945000       0.03815000       0.90793000
    34  N          0.84055000       0.96185000       0.09207000
    35  N          0.05595000       0.45955000       0.01333000
    36  N          0.94405000       0.54045000       0.98667000
    37  C          0.23657000       0.08146000       0.96994000
    38  C          0.76343000       0.91854000       0.03006000
    39  H          0.31609900       0.01561900       0.98941800
    40  H          0.68390100       0.98438100       0.01058200
    41  C          0.00627000       0.27215000       0.91084000
    42  C         -0.00627000       0.72785000       0.08916000
    43  H          0.92716600       0.33587800       0.88898400
    44  H          0.07283400       0.66412200       0.11101600
    45  C          0.20346000       0.21925000       0.00624000
    46  C          0.79654000       0.78075000      -0.00624000
    47  H          0.25839200       0.24569300       0.04958900
    48  H          0.74160800       0.75430700       0.95041100
    49  C          0.04697000       0.13265000       0.87974000
    50  C          0.95303000       0.86735000       0.12026000
    51  H         -0.00702800       0.10276700       0.83677600
    52  H          0.00702800       0.89723300       0.16322400
    53  C          0.08576000       0.31625000       0.97564000
    54  C          0.91424000       0.68375000       0.02436000
    55  H          0.16216000       0.93760000       0.88480000
    56  H          0.83784000       0.06240000       0.11520000
    57  H          0.83784000       0.06360000       0.11680000
    58  H          0.16216000       0.93640000       0.88320000
    59  N          0.09285000       0.47224000       0.56593000
    60  N          0.90715000       0.52776000       0.43407000
    61  C          0.95044000       0.40935000       0.57863000
    62  C          0.04956000       0.59065000       0.42137000
    63  C          0.14456000       0.56305000       0.48913000
    64  C          0.85544000       0.43695000       0.51087000
    65  C          0.89993000       0.31117000       0.66694000
    66  C          0.10007000       0.68883000       0.33306000
    67  H          0.98814400       0.29574000       0.69906300
    68  H          0.01185600       0.70426000       0.30093700
    69  H          0.87215600       0.21594000       0.65268900
    70  H          0.12784400       0.78406000       0.34731100
    71  H          0.80729500       0.35852800       0.70570400
    72  H          0.19270500       0.64147200       0.29429600
    73  C          0.30477000       0.62886000       0.47774000
    74  C          0.69523000       0.37114000       0.52226000
    75  H          0.34193300       0.61012900       0.53503300
    76  H          0.65806700       0.38987100       0.46496700
    77  H          0.29322600       0.73521400       0.46161200
    78  H          0.70677400       0.26478600       0.53838800
    79  H          0.38222800       0.58347900       0.42901800
    80  H          0.61777200       0.41652100       0.57098200
    81  C          0.93772000       0.95414000       0.52225000
    82  C          0.06228000       0.04586000       0.47775000
    83  C          0.18169000       0.95932000       0.61775000
    84  C          0.81831000       0.04068000       0.38225000
    85  H          0.26185800       0.95830900       0.65204200
    86  H          0.73814200       0.04169100       0.34795800
    87  C          0.04841100       0.87501000       0.65236000
    88  C          0.95158900       0.12499000       0.34764000
    89  H          0.04199200       0.81907400       0.70967000
    90  H          0.95800800       0.18092600       0.29033000
    91  C          0.21181000       0.22288000       0.35196000
    92  C          0.78819000       0.77712000       0.64804000
    93  H          0.22209600       0.28093200       0.29507500
    94  H          0.77790400       0.71906800       0.70492500
    95  C          0.92868900       0.87011000       0.60726000
    96  C          0.07131100       0.12989000       0.39274000
    97  C          0.19901000       0.05018000       0.52866000
    98  C          0.80099000       0.94982000       0.47134000
    99  C          0.32331200       0.21439000       0.40627000
   100  C          0.67668800       0.78561000       0.59373000
   101  H          0.41178000       0.27270400       0.38285300
   102  H          0.58822000       0.72729600       0.61714700
   103  C          0.32621100       0.13131000       0.49187000
   104  C          0.67378900       0.86869000       0.50813000
   105  H          0.41261500       0.13281100       0.52130300
   106  H          0.58738500       0.86718900       0.47869700
