data_CEYHAS
_symmetry_space_group_name_H-M    'P1'
_symmetry_Int_Tables_number       1
loop_
_symmetry_equiv_pos_site_id
_symmetry_equiv_pos_as_xyz
1 x,y,z
_cell_length_a                   10.75343
_cell_length_b                   11.19763
_cell_length_c                   11.42673
_cell_angle_alpha                94.72958
_cell_angle_beta                 116.00166
_cell_angle_gamma                96.50198
loop_
_atom_site_label
_atom_site_type_symbol
_atom_site_fract_x
_atom_site_fract_y
_atom_site_fract_z
     1  C          0.38424160       0.63801890       0.02364140
     2  C          0.61575840       0.36198110       0.97635860
     3  H          0.32700000       0.61510000       0.06800000
     4  H          0.67300000       0.38490000       0.93200000
     5  H          0.44170000       0.57550000       0.02570000
     6  H          0.55830000       0.42450000       0.97430000
     7  H          0.32280000       0.64550000       0.93200000
     8  H          0.67720000       0.35450000       0.06800000
     9  C          0.47937120       0.75914900       0.09390110
    10  C          0.52062880       0.24085100       0.90609890
    11  H          0.54270000       0.75020000       0.18570000
    12  H          0.45730000       0.24980000       0.81430000
    13  H          0.53830000       0.78070000       0.04970000
    14  H          0.46170000       0.21930000       0.95030000
    15  C          0.39944110       0.86187900       0.09589110
    16  C          0.60055890       0.13812100       0.90410890
    17  H          0.34050000       0.84040000       0.14010000
    18  H          0.65950000       0.15960000       0.85990000
    19  H          0.33610000       0.87090000       0.00420000
    20  H          0.66390000       0.12910000      -0.00420000
    21  C          0.49492110       0.98296900       0.16626100
    22  C          0.50507890       0.01703100       0.83373900
    23  H          0.55700000       0.97410000       0.25840000
    24  H          0.44300000       0.02590000       0.74160000
    25  H          0.55520000       0.00340000       0.12310000
    26  H          0.44480000      -0.00340000       0.87690000
    27  C          0.41632110       0.08724100       0.16677110
    28  C          0.58367890       0.91275900       0.83322890
    29  H          0.35440000       0.06610000       0.20800000
    30  H          0.64560000       0.93390000       0.79200000
    31  H          0.35600000       0.09750000       0.07470000
    32  H          0.64400000       0.90250000       0.92530000
    33  C          0.51244110       0.20749100       0.24011100
    34  C          0.48755890       0.79250900       0.75988900
    35  H          0.57360000       0.19730000       0.33200000
    36  H          0.42640000       0.80270000       0.66800000
    37  H          0.57350000       0.22950000       0.19820000
    38  H          0.42650000       0.77050000       0.80180000
    39  C          0.43199110       0.31017100       0.24100110
    40  C          0.56800890       0.68982900       0.75899890
    41  H          0.36550000       0.28540000       0.27650000
    42  H          0.63450000       0.71460000       0.72350000
    43  H          0.37640000       0.32450000       0.14930000
    44  H          0.62360000       0.67550000       0.85070000
    45  C          0.52675110       0.42834100       0.32272110
    46  C          0.47324890       0.57165900       0.67727890
    47  H          0.58760000       0.41250000       0.41250000
    48  H          0.41240000       0.58750000       0.58750000
    49  H          0.58830000       0.45640000       0.28310000
    50  H          0.41170000       0.54360000       0.71690000
    51  C          0.44798110       0.52682900       0.33226100
    52  C          0.55201890       0.47317100       0.66773900
    53  C          0.28649100       0.63530900       0.31464900
    54  C          0.71350900       0.36469100       0.68535100
    55  C          0.13959100       0.65455900       0.26933100
    56  C          0.86040900       0.34544100       0.73066900
    57  C          0.04553120       0.62423110       0.13614120
    58  C          0.95446880       0.37576890       0.86385880
    59  H          0.07760000       0.59500000       0.07560000
    60  H          0.92240000       0.40500000       0.92440000
    61  C          0.90581870       0.63616120       0.09104140
    62  C          0.09418130       0.36383880       0.90895860
    63  H          0.84260000       0.61460000       0.00010000
    64  H          0.15740000       0.38540000      -0.00010000
    65  C          0.85835870       0.67927120       0.17807160
    66  C          0.14164130       0.32072880       0.82192840
    67  H          0.76270000       0.68790000       0.14710000
    68  H          0.23730000       0.31210000       0.85290000
    69  C          0.95052870       0.70986120       0.31034150
    70  C          0.04947130       0.29013880       0.68965850
    71  H          0.91810000       0.74010000       0.37020000
    72  H          0.08190000       0.25990000       0.62980000
    73  C          0.09042120       0.69658100       0.35629120
    74  C          0.90957880       0.30341900       0.64370880
    75  H          0.15270000       0.71630000       0.44760000
    76  H          0.84730000       0.28370000       0.55240000
    77  C          0.65726100       0.70362900       0.46544100
    78  C          0.34273900       0.29637100       0.53455900
    79  H          0.70650000       0.70090000       0.40990000
    80  H          0.29350000       0.29910000       0.59010000
    81  H          0.71080000       0.67010000       0.54720000
    82  H          0.28920000       0.32990000       0.45280000
    83  C          0.63327100       0.82998900       0.49445100
    84  C          0.36672900       0.17001100       0.50554900
    85  C          0.49121100       0.83565900       0.44748900
    86  C          0.50878900       0.16434100       0.55251100
    87  C          0.41338100       0.71247900       0.38443900
    88  C          0.58661900       0.28752100       0.61556100
    89  C          0.44671100       0.94758900       0.46489900
    90  C          0.55328900       0.05241100       0.53510100
    91  C          0.30345100       0.95919900       0.41668100
    92  C          0.69654900       0.04080100       0.58331900
    93  H          0.23340000       0.89020000       0.36840000
    94  H          0.76660000       0.10980000       0.63160000
    95  C          0.26365100       0.06737100       0.43804100
    96  C          0.73634900       0.93262900       0.56195900
    97  H          0.16710000       0.07280000       0.40740000
    98  H          0.83290000       0.92720000       0.59260000
    99  N          0.31022900       0.52047800       0.28255800
   100  N          0.68977100       0.47952200       0.71744200
   101  N          0.51323800       0.64031800       0.39478800
   102  N          0.48676200       0.35968200       0.60521200
   103  C          0.95072130       0.25233120       0.27779120
   104  C          0.04927870       0.74766880       0.72220880
   105  C          0.01572150       0.23825150       0.19749130
   106  C         -0.01572150       0.76174850       0.80250870
   107  H          0.06280000       0.30760000       0.18200000
   108  H          0.93720000       0.69240000       0.81800000
   109  C          0.01243180       0.12337180       0.13960140
   110  C         -0.01243180       0.87662820       0.86039860
   111  H          0.05740000       0.11470000       0.08480000
   112  H          0.94260000       0.88530000       0.91520000
   113  C          0.94452160       0.02160150       0.16081140
   114  C          0.05547840       0.97839850       0.83918860
   115  H          0.94220000       0.94320000       0.12050000
   116  H          0.05780000       0.05680000       0.87950000
   117  C          0.88069130       0.03472130       0.24032140
   118  C          0.11930870       0.96527870       0.75967860
   119  H          0.83420000       0.96500000       0.25580000
   120  H          0.16580000       0.03500000       0.74420000
   121  C          0.88341130       0.14888120       0.29828130
   122  C          0.11658870       0.85111880       0.70171870
   123  H          0.83840000       0.15670000       0.35320000
   124  H          0.16160000       0.84330000       0.64680000
   125  C          0.95293180       0.37671130       0.33973160
   126  C          0.04706820       0.62328870       0.66026840
   127  H          0.03590000       0.39790000       0.42550000
   128  H          0.96410000       0.60210000       0.57450000
   129  H          0.86810000       0.37710000       0.35160000
   130  H          0.13190000       0.62290000       0.64840000
   131  H          0.95620000       0.43620000       0.28250000
   132  H          0.04380000       0.56380000       0.71750000
