data_CEZGOG
_symmetry_space_group_name_H-M    'P1'
_symmetry_Int_Tables_number       1
loop_
_symmetry_equiv_pos_site_id
_symmetry_equiv_pos_as_xyz
1 x,y,z
_cell_length_a                   10.163519
_cell_length_b                   20.7914
_cell_length_c                   10.554719
_cell_angle_alpha                90.0
_cell_angle_beta                 102.6412
_cell_angle_gamma                90.0
loop_
_atom_site_label
_atom_site_type_symbol
_atom_site_fract_x
_atom_site_fract_y
_atom_site_fract_z
     1  C          0.81363000       0.97977160       0.34993000
     2  C          0.18637000       0.47977160       0.65007000
     3  C          0.87473000       0.03024170       0.42233000
     4  C          0.12527000       0.53024170       0.57767000
     5  H          0.95940000       0.04770000       0.41960000
     6  H          0.04060000       0.54770000       0.58040000
     7  C          0.78814000       0.05174170       0.50223000
     8  C          0.21186000       0.55174170       0.49777000
     9  H          0.80490000       0.08610000       0.56140000
    10  H          0.19510000       0.58610000       0.43860000
    11  C          0.67583000       0.01365160       0.47793000
    12  C          0.32417000       0.51365160       0.52207000
    13  C          0.54883000       0.01478160       0.53183000
    14  C          0.45117000       0.51478160       0.46817000
    15  C          0.53993000       0.95601150       0.61533000
    16  C          0.46007000       0.45601150       0.38467000
    17  C          0.55183000       0.94967170       0.74643000
    18  C          0.44817000       0.44967170       0.25357000
    19  H          0.57080000       0.98300000       0.80790000
    20  H          0.42920000       0.48300000       0.19210000
    21  C          0.53033000       0.88390170       0.77323000
    22  C          0.46967000       0.38390170       0.22677000
    23  H          0.53250000       0.86600000       0.85540000
    24  H          0.46750000       0.36600000       0.14460000
    25  C          0.50573000       0.85143170       0.65723000
    26  C          0.49427000       0.35143170       0.34277000
    27  C          0.47133000       0.78118160       0.62523000
    28  C          0.52867000       0.28118160       0.37477000
    29  C          0.58533000       0.74351160       0.58893000
    30  C          0.41467000       0.24351160       0.41107000
    31  C          0.66423000       0.69545170       0.65073000
    32  C          0.33577000       0.19545170       0.34927000
    33  H          0.66320000       0.67910000       0.73350000
    34  H          0.33680000       0.17910000       0.26650000
    35  C          0.74863000       0.67408160       0.56833000
    36  C          0.25137000       0.17408160       0.43167000
    37  H          0.81320000       0.64110000       0.58690000
    38  H          0.18680000       0.14110000       0.41310000
    39  C          0.71963000       0.70974160       0.45803000
    40  C          0.28037000       0.20974160       0.54197000
    41  C          0.77383000       0.70776160       0.33453000
    42  C          0.22617000       0.20776160       0.66547000
    43  C          0.85633000       0.76709160       0.32153000
    44  C          0.14367000       0.26709160       0.67847000
    45  C         -0.00807000       0.77561180       0.32853000
    46  C          0.00807000       0.27561180       0.67147000
    47  H          0.05820000       0.74340000       0.34680000
    48  H          0.94180000       0.24340000       0.65320000
    49  C          0.01473000       0.84143170       0.30343000
    50  C         -0.01473000       0.34143170       0.69657000
    51  H          0.09830000       0.86040000       0.30220000
    52  H          0.90170000       0.36040000       0.69780000
    53  C          0.89333000       0.87180160       0.28143000
    54  C          0.10667000       0.37180160       0.71857000
    55  C          0.85443000       0.94084160       0.24283000
    56  C          0.14557000       0.44084160       0.75717000
    57  C          0.42373000       0.01764180       0.41853000
    58  C          0.57627000       0.51764180       0.58147000
    59  H          0.34270000       0.01850000       0.45290000
    60  H          0.65730000       0.51850000       0.54710000
    61  H          0.42220000       0.98000000       0.36380000
    62  H          0.57780000       0.48000000       0.63620000
    63  H          0.42770000       0.05620000       0.36760000
    64  H          0.57230000       0.55620000       0.63240000
    65  C          0.54944000       0.07530170       0.61453000
    66  C          0.45056000       0.57530170       0.38547000
    67  H          0.46840000       0.07630000       0.64900000
    68  H          0.53160000       0.57630000       0.35100000
    69  H          0.55200000       0.11310000       0.56130000
    70  H          0.44800000       0.61310000       0.43870000
    71  H          0.62810000       0.07490000       0.68560000
    72  H          0.37190000       0.57490000       0.31440000
    73  C          0.34383000       0.77590180       0.51383000
    74  C          0.65617000       0.27590180       0.48617000
    75  H          0.36180000       0.79520000       0.43560000
    76  H          0.63820000       0.29520000       0.56440000
    77  H          0.26940000       0.79820000       0.53850000
    78  H          0.73060000       0.29820000       0.46150000
    79  H          0.32050000       0.73100000       0.49750000
    80  H          0.67950000       0.23100000       0.50250000
    81  C          0.65504000       0.70345190       0.21563000
    82  C          0.34496000       0.20345190       0.78437000
    83  H          0.60150000       0.66560000       0.22310000
    84  H          0.39850000       0.16560000       0.77690000
    85  H          0.68960000       0.70050000       0.13710000
    86  H          0.31040000       0.20050000       0.86290000
    87  H          0.59920000       0.74160000       0.21170000
    88  H          0.40080000       0.24160000       0.78830000
    89  C          0.86204000       0.64771180       0.33764000
    90  C          0.13796000       0.14771180       0.66236000
    91  H          0.80920000       0.60970000       0.34610000
    92  H          0.19080000       0.10970000       0.65390000
    93  H          0.93830000       0.65030000       0.41100000
    94  H          0.06170000       0.15030000       0.58900000
    95  H          0.89420000       0.64510000       0.25780000
    96  H          0.10580000       0.14510000       0.74220000
    97  C          0.73783000       0.94161180       0.11983000
    98  C          0.26217000       0.44161180       0.88017000
    99  H          0.65820000       0.92190000       0.13980000
   100  H          0.34180000       0.42190000       0.86020000
   101  H          0.76470000       0.91770000       0.05070000
   102  H          0.23530000       0.41770000       0.94930000
   103  H          0.71760000       0.98570000       0.09210000
   104  H          0.28240000       0.48570000       0.90790000
   105  C          0.43623000       0.75076170       0.74073000
   106  C          0.56377000       0.25076170       0.25927000
   107  C          0.39453000       0.72671160       0.82593000
   108  C          0.60547000       0.22671160       0.17407000
   109  C          0.32913000       0.70040170       0.92323000
   110  C          0.67087000       0.20040170       0.07677000
   111  C          0.32273000       0.73658190       0.03293000
   112  C          0.67727000       0.23658190       0.96707000
   113  H          0.36780000       0.77630000       0.04740000
   114  H          0.63220000       0.27630000       0.95260000
   115  C          0.25074000       0.71422000       0.11993000
   116  C          0.74926000       0.21422000       0.88007000
   117  H          0.24670000       0.73880000       0.19380000
   118  H          0.75330000       0.23880000       0.80620000
   119  C          0.18434000       0.65622000       0.09994000
   120  C          0.81566000       0.15622000       0.90006000
   121  H          0.13430000       0.64150000       0.15930000
   122  H          0.86570000       0.14150000       0.84070000
   123  C          0.19134000       0.61972000      -0.00746000
   124  C          0.80866000       0.11972000       0.00746000
   125  H          0.14660000       0.57980000       0.97920000
   126  H          0.85340000       0.07980000       0.02080000
   127  C          0.26373000       0.64138180       0.90403000
   128  C          0.73627000       0.14138180       0.09597000
   129  H          0.26870000       0.61620000       0.83120000
   130  H          0.73130000       0.11620000       0.16880000
   131  C          0.97263000       0.97127170       0.20723000
   132  C          0.02737000       0.47127170       0.79277000
   133  C          0.06503000       0.99313170       0.16913000
   134  C          0.93497000       0.49313170       0.83087000
   135  C          0.17523000       0.01696180       0.11703000
   136  C          0.82477000       0.51696180       0.88297000
   137  C          0.19334000       0.08212000       0.10043000
   138  C          0.80666000       0.58212000       0.89957000
   139  H          0.13350000       0.11190000       0.12430000
   140  H          0.86650000       0.61190000       0.87570000
   141  C          0.29905000       0.10352000       0.04874000
   142  C          0.70095000       0.60352000       0.95126000
   143  H          0.31130000       0.14790000       0.03820000
   144  H          0.68870000       0.64790000       0.96180000
   145  C          0.38665000       0.06023000       0.01244000
   146  C          0.61335000       0.56023000      -0.01244000
   147  H          0.45790000       0.07500000       0.97650000
   148  H          0.54210000       0.57500000       0.02350000
   149  C          0.36994000      -0.00428000       0.02874000
   150  C          0.63006000       0.49572000       0.97126000
   151  H          0.42930000       0.96620000       0.00320000
   152  H          0.57070000       0.46620000      -0.00320000
   153  C          0.26583000       0.97372000       0.08273000
   154  C          0.73417000       0.47372000       0.91727000
   155  H          0.25640000       0.92940000       0.09630000
   156  H          0.74360000       0.42940000       0.90370000
   157  N          0.69273000       0.96978140       0.38463000
   158  N          0.30727000       0.46978140       0.61537000
   159  N          0.51223000       0.89579130       0.56203000
   160  N          0.48777000       0.39579130       0.43797000
   161  N          0.62073000       0.75287130       0.47123000
   162  N          0.37927000       0.25287130       0.52877000
   163  N          0.79713000       0.82638130       0.29263000
   164  N          0.20287000       0.32638130       0.70737000
   165  H          0.63440000       0.93801900       0.35040000
   166  H          0.36560000       0.43801900       0.64960000
   167  H          0.49630000       0.88741500       0.47730000
   168  H          0.50370000       0.38741500       0.52270000
   169  H          0.58030000       0.78041600       0.40530000
   170  H          0.41970000       0.28041600       0.59470000
   171  H          0.70240000       0.83471800       0.27330000
   172  H          0.29760000       0.33471800       0.72670000
   173  C          0.95893000       0.81194170       0.65983000
   174  C          0.04107000       0.31194170       0.34017000
   175  H          0.86500000       0.79980000       0.65640000
   176  H          0.13500000       0.29980000       0.34360000
   177  H          0.96350000       0.82910000       0.57440000
   178  H          0.03650000       0.32910000       0.42560000
   179  C          0.04523000       0.75226190       0.68494000
   180  C          0.95477000       0.25226190       0.31506000
   181  H          0.01340000       0.72110000       0.61670000
   182  H         -0.01340000       0.22110000       0.38330000
   183  H          0.03950000       0.73400000       0.76810000
   184  H          0.96050000       0.23400000       0.23190000
   185  H          0.13810000       0.76340000       0.68600000
   186  H          0.86190000       0.26340000       0.31400000
   187  C          0.00423000       0.83997190       0.89683000
   188  C         -0.00423000       0.33997190       0.10317000
   189  H          0.08100000       0.81050000       0.92000000
   190  H          0.91900000       0.31050000       0.08000000
   191  H          0.02160000       0.87630000       0.95730000
   192  H          0.97840000       0.37630000       0.04270000
   193  C          0.87934000       0.80532000       0.91674000
   194  C          0.12066000       0.30532000       0.08326000
   195  H          0.89290000       0.79130000       0.00620000
   196  H          0.10710000       0.29130000      -0.00620000
   197  H          0.86240000       0.76820000       0.85970000
   198  H          0.13760000       0.26820000       0.14030000
   199  H          0.80260000       0.83420000       0.89680000
   200  H          0.19740000       0.33420000       0.10320000
   201  C          0.89283000       0.91758170       0.72493000
   202  C          0.10717000       0.41758170       0.27507000
   203  H          0.88830000       0.93060000       0.63480000
   204  H          0.11170000       0.43060000       0.36520000
   205  H          0.80470000       0.89960000       0.72920000
   206  H          0.19530000       0.39960000       0.27080000
   207  C          0.91804000       0.97687190       0.81033000
   208  C          0.08196000       0.47687190       0.18967000
   209  H          0.84630000       0.00780000       0.78110000
   210  H          0.15370000       0.50780000       0.21890000
   211  H          0.00380000      -0.00410000       0.80500000
   212  H         -0.00380000       0.49590000       0.19500000
   213  H          0.91990000       0.96490000       0.89950000
   214  H          0.08010000       0.46490000       0.10050000
   215  C          0.13933000       0.89086190       0.75983000
   216  C          0.86067000       0.39086190       0.24017000
   217  H          0.16600000       0.92070000       0.83280000
   218  H          0.83400000       0.42070000       0.16720000
   219  H          0.20280000       0.85480000       0.77460000
   220  H          0.79720000       0.35480000       0.22540000
   221  C          0.15274000       0.92492000       0.63714000
   222  C          0.84726000       0.42492000       0.36286000
   223  H          0.24490000       0.93950000       0.64570000
   224  H          0.75510000       0.43950000       0.35430000
   225  H          0.09230000       0.96160000       0.62250000
   226  H          0.90770000       0.46160000       0.37750000
   227  H          0.12940000       0.89550000       0.56420000
   228  H          0.87060000       0.39550000       0.43580000
   229  N         -0.00158000       0.86514160       0.76052000
   230  N          0.00158000       0.36514160       0.23948000
   231  Cl         0.47658700       0.85798400       0.25644700
   232  Cl         0.52341300       0.35798400       0.74355300
