data_CIDRIT
_symmetry_space_group_name_H-M    'P1'
_symmetry_Int_Tables_number       1
loop_
_symmetry_equiv_pos_site_id
_symmetry_equiv_pos_as_xyz
1 x,y,z
_cell_length_a                   12.5787
_cell_length_b                   13.2628
_cell_length_c                   15.6279
_cell_angle_alpha                90.0
_cell_angle_beta                 109.993
_cell_angle_gamma                90.0
loop_
_atom_site_label
_atom_site_type_symbol
_atom_site_fract_x
_atom_site_fract_y
_atom_site_fract_z
     1  O          0.70453120       0.05285100       0.91210900
     2  O          0.29546880       0.55285100       0.58789100
     3  O          0.29546880       0.94714900       0.08789100
     4  O          0.70453120       0.44714900       0.41210900
     5  O          0.19973110       0.37979100       0.32710100
     6  O          0.80026890       0.87979100       0.17289900
     7  O          0.80026890       0.62020900       0.67289900
     8  O          0.19973110       0.12020900       0.82710100
     9  N          0.34867130       0.27847110       0.39523100
    10  N          0.65132870       0.77847110       0.10476900
    11  N          0.65132870       0.72152890       0.60476900
    12  N          0.34867130       0.22152890       0.89523100
    13  H          0.38720000       0.22740000       0.38840000
    14  H          0.61280000       0.72740000       0.11160000
    15  H          0.61280000       0.77260000       0.61160000
    16  H          0.38720000       0.27260000       0.88840000
    17  N          0.56139130       0.98900890       0.79369100
    18  N          0.43860870       0.48900890       0.70630900
    19  N          0.43860870       0.01099110       0.20630900
    20  N          0.56139130       0.51099110       0.29369100
    21  H          0.53990000       0.94090000       0.75470000
    22  H          0.46010000       0.44090000       0.74530000
    23  H          0.46010000       0.05910000       0.24530000
    24  H          0.53990000       0.55910000       0.25470000
    25  C          0.11589160       0.24811150       0.17688130
    26  C          0.88410840       0.74811150       0.32311870
    27  C          0.88410840       0.75188850       0.82311870
    28  C          0.11589160       0.25188850       0.67688130
    29  H          0.06910000       0.30070000       0.18130000
    30  H          0.93090000       0.80070000       0.31870000
    31  H          0.93090000       0.69930000       0.81870000
    32  H          0.06910000       0.19930000       0.68130000
    33  C          0.21915150       0.23273130       0.24593120
    34  C          0.78084850       0.73273130       0.25406880
    35  C          0.78084850       0.76726870       0.75406880
    36  C          0.21915150       0.26726870       0.74593120
    37  C          0.25466150       0.30306130       0.32589120
    38  C          0.74533850       0.80306130       0.17410880
    39  C          0.74533850       0.69693870       0.67410880
    40  C          0.25466150       0.19693870       0.82589120
    41  C          0.38935180       0.33297140       0.48126120
    42  C          0.61064820       0.83297140       0.01873880
    43  C          0.61064820       0.66702860       0.51873880
    44  C          0.38935180       0.16702860       0.98126120
    45  H          0.33280000       0.38170000       0.48350000
    46  H          0.66720000       0.88170000       0.01650000
    47  H          0.66720000       0.61830000       0.51650000
    48  H          0.33280000       0.11830000       0.98350000
    49  H          0.45770000       0.36950000       0.48540000
    50  H          0.54230000       0.86950000       0.01460000
    51  H          0.54230000       0.63050000       0.51460000
    52  H          0.45770000       0.13050000       0.98540000
    53  C          0.41383160       0.26151130       0.56117120
    54  C          0.58616840       0.76151130       0.93882880
    55  C          0.58616840       0.73848870       0.43882880
    56  C          0.41383160       0.23848870       0.06117120
    57  C          0.51653160       0.26614130       0.63268120
    58  C          0.48346840       0.76614130       0.86731880
    59  C          0.48346840       0.73385870       0.36731880
    60  C          0.51653160       0.23385870       0.13268120
    61  H          0.57200000       0.31120000       0.63020000
    62  H          0.42800000       0.81120000       0.86980000
    63  H          0.42800000       0.68880000       0.36980000
    64  H          0.57200000       0.18880000       0.13020000
    65  C          0.53638150       0.20370140       0.70771120
    66  C          0.46361850       0.70370140       0.79228880
    67  C          0.46361850       0.79629860       0.29228880
    68  C          0.53638150       0.29629860       0.20771120
    69  H          0.60500000       0.20780000       0.75550000
    70  H          0.39500000       0.70780000       0.74450000
    71  H          0.39500000       0.79220000       0.24450000
    72  H          0.60500000       0.29220000       0.25550000
    73  C          0.45494150       0.13496130       0.71237120
    74  C          0.54505850       0.63496130       0.78762880
    75  C          0.54505850       0.86503870       0.28762880
    76  C          0.45494150       0.36503870       0.21237120
    77  C          0.47957160       0.06657140       0.79409120
    78  C          0.52042840       0.56657140       0.70590880
    79  C          0.52042840       0.93342860       0.20590880
    80  C          0.47957160       0.43342860       0.29409120
    81  H          0.50900000       0.10630000       0.84930000
    82  H          0.49100000       0.60630000       0.65070000
    83  H          0.49100000       0.89370000       0.15070000
    84  H          0.50900000       0.39370000       0.34930000
    85  H          0.40990000       0.03490000       0.79380000
    86  H          0.59010000       0.53490000       0.70620000
    87  H          0.59010000       0.96510000       0.20620000
    88  H          0.40990000       0.46510000       0.29380000
    89  C          0.66859150       0.98911870       0.85127110
    90  C          0.33140850       0.48911870       0.64872890
    91  C          0.33140850       0.01088130       0.14872890
    92  C          0.66859150       0.51088130       0.35127110
    93  C          0.74342150       0.90711870       0.83916110
    94  C          0.25657850       0.40711870       0.66083890
    95  C          0.25657850       0.09288130       0.16083890
    96  C          0.74342150       0.59288130       0.33916110
    97  C          0.84772160       0.89167850       0.90699120
    98  C          0.15227840       0.39167850       0.59300880
    99  C          0.15227840       0.10832150       0.09300880
   100  C          0.84772160       0.60832150       0.40699120
   101  H          0.87050000       0.93320000       0.95800000
   102  H          0.12950000       0.43320000       0.54200000
   103  H          0.12950000       0.06680000       0.04200000
   104  H          0.87050000       0.56680000       0.45800000
   105  C          0.91739170       0.81473840       0.89849130
   106  C          0.08260830       0.31473840       0.60150870
   107  C          0.08260830       0.18526160       0.10150870
   108  C          0.91739170       0.68526160       0.39849130
   109  H         -0.01270000       0.80500000       0.94380000
   110  H          0.01270000       0.30500000       0.55620000
   111  H          0.01270000       0.19500000       0.05620000
   112  H         -0.01270000       0.69500000       0.44380000
   113  C          0.71192150       0.84545870       0.76272110
   114  C          0.28807850       0.34545870       0.73727890
   115  C          0.28807850       0.15454130       0.23727890
   116  C          0.71192150       0.65454130       0.26272110
   117  H          0.64320000       0.85680000       0.71640000
   118  H          0.35680000       0.35680000       0.78360000
   119  H          0.35680000       0.14320000       0.28360000
   120  H          0.64320000       0.64320000       0.21640000
   121  C          0.35349150       0.12924140       0.63985120
   122  C          0.64650850       0.62924140       0.86014880
   123  C          0.64650850       0.87075860       0.36014880
   124  C          0.35349150       0.37075860       0.13985120
   125  H          0.29870000       0.08290000       0.64160000
   126  H          0.70130000       0.58290000       0.85840000
   127  H          0.70130000       0.91710000       0.35840000
   128  H          0.29870000       0.41710000       0.14160000
   129  C          0.33306150       0.19201140       0.56485120
   130  C          0.66693850       0.69201140       0.93514880
   131  C          0.66693850       0.80798860       0.43514880
   132  C          0.33306150       0.30798860       0.06485120
   133  H          0.26480000       0.18750000       0.51680000
   134  H          0.73520000       0.68750000       0.98320000
   135  H          0.73520000       0.81250000       0.48320000
   136  H          0.26480000       0.31250000       0.01680000
   137  O          0.07551100       0.86189900       0.53209800
   138  O          0.92448900       0.36189900       0.96790200
   139  O          0.92448900       0.13810100       0.46790200
   140  O          0.07551100       0.63810100       0.03209800
   141  O          0.12311100       0.97690100       0.28408800
   142  O          0.87688900       0.47690100       0.21591200
   143  O          0.87688900       0.02309900       0.71591200
   144  O          0.12311100       0.52309900       0.78408800
   145  O          0.46020100       0.87803100       0.60442800
   146  O          0.53979900       0.37803100       0.89557200
   147  O          0.53979900       0.12196900       0.39557200
   148  O          0.46020100       0.62196900       0.10442800
   149  N          0.29819120       0.86209890       0.48520900
   150  N          0.70180880       0.36209890       0.01479100
   151  N          0.70180880       0.13790110       0.51479100
   152  N          0.29819120       0.63790110       0.98520900
   153  N          0.19115120       0.98042890       0.37673100
   154  N          0.80884880       0.48042890       0.12326900
   155  N          0.80884880       0.01957110       0.62326900
   156  N          0.19115120       0.51957110       0.87673100
   157  C          0.02981170       0.91261850       0.58766140
   158  C          0.97018830       0.41261850       0.91233860
   159  C          0.97018830       0.08738150       0.41233860
   160  C          0.02981170       0.58738150       0.08766140
   161  H          0.95560000       0.93570000       0.56980000
   162  H          0.04440000       0.43570000       0.93020000
   163  H          0.04440000       0.06430000       0.43020000
   164  H          0.95560000       0.56430000       0.06980000
   165  C          0.18582140       0.84149870       0.58421120
   166  C          0.81417860       0.34149870       0.91578880
   167  C          0.81417860       0.15850130       0.41578880
   168  C          0.18582140       0.65850130       0.08421120
   169  C          0.25357150       0.78978870       0.53643120
   170  C          0.74642850       0.28978870       0.96356880
   171  C          0.74642850       0.21021130       0.46356880
   172  C          0.25357150       0.71021130       0.03643120
   173  H          0.31610000       0.75460000       0.58050000
   174  H          0.68390000       0.25460000       0.91950000
   175  H          0.68390000       0.24540000       0.41950000
   176  H          0.31610000       0.74540000       0.08050000
   177  H          0.20680000       0.74020000       0.49470000
   178  H          0.79320000       0.24020000       0.00530000
   179  H          0.79320000       0.25980000       0.50530000
   180  H          0.20680000       0.75980000      -0.00530000
   181  C          0.40185140       0.90412870       0.52666110
   182  C          0.59814860       0.40412870       0.97333890
   183  C          0.59814860       0.09587130       0.47333890
   184  C          0.40185140       0.59587130       0.02666110
   185  C          0.44136140       0.98090870       0.47317110
   186  C          0.55863860       0.48090870       0.02682890
   187  C          0.55863860       0.01909130       0.52682890
   188  C          0.44136140       0.51909130       0.97317110
   189  H          0.38890000       0.03710000       0.45780000
   190  H          0.61110000       0.53710000       0.04220000
   191  H          0.61110000       0.96290000       0.54220000
   192  H          0.38890000       0.46290000       0.95780000
   193  H          0.44200000       0.95070000       0.41680000
   194  H          0.55800000       0.45070000       0.08320000
   195  H          0.55800000       0.04930000       0.58320000
   196  H          0.44200000       0.54930000       0.91680000
   197  C          0.22582140       0.88736870       0.39617110
   198  C          0.77417860       0.38736870       0.10382890
   199  C          0.77417860       0.11263130       0.60382890
   200  C          0.22582140       0.61263130       0.89617110
   201  C          0.18221140       0.82066860       0.32205120
   202  C          0.81778860       0.32066860       0.17794880
   203  C          0.81778860       0.17933140       0.67794880
   204  C          0.18221140       0.67933140       0.82205120
   205  H          0.19410000       0.75160000       0.32070000
   206  H          0.80590000       0.25160000       0.17930000
   207  H          0.80590000       0.24840000       0.67930000
   208  H          0.19410000       0.74840000       0.82070000
   209  C          0.11912140       0.88061870       0.25355120
   210  C          0.88087860       0.38061870       0.24644880
   211  C          0.88087860       0.11938130       0.74644880
   212  C          0.11912140       0.61938130       0.75355120
   213  C          0.05218160       0.86411850       0.15587120
   214  C          0.94781840       0.36411850       0.34412880
   215  C          0.94781840       0.13588150       0.84412880
   216  C          0.05218160       0.63588150       0.65587120
   217  H          0.01860000       0.92660000       0.12890000
   218  H          0.98140000       0.42660000       0.37110000
   219  H          0.98140000       0.07340000       0.87110000
   220  H          0.01860000       0.57340000       0.62890000
   221  H         -0.00620000       0.81550000       0.15070000
   222  H          0.00620000       0.31550000       0.34930000
   223  H          0.00620000       0.18450000       0.84930000
   224  H         -0.00620000       0.68450000       0.65070000
   225  H          0.10100000       0.83960000       0.12480000
   226  H          0.89900000       0.33960000       0.37520000
   227  H          0.89900000       0.16040000       0.87520000
   228  H          0.10100000       0.66040000       0.62480000
   229  C          0.20832160       0.87861860       0.66899130
   230  C          0.79167840       0.37861860       0.83100870
   231  C          0.79167840       0.12138140       0.33100870
   232  C          0.20832160       0.62138140       0.16899130
   233  H          0.27690000       0.87510000       0.71680000
   234  H          0.72310000       0.37510000       0.78320000
   235  H          0.72310000       0.12490000       0.28320000
   236  H          0.27690000       0.62490000       0.21680000
   237  C          0.10637170       0.92441850       0.67106140
   238  C          0.89362830       0.42441850       0.82893860
   239  C          0.89362830       0.07558150       0.32893860
   240  C          0.10637170       0.57558150       0.17106140
   241  H          0.09540000       0.95610000       0.72050000
   242  H          0.90460000       0.45610000       0.77950000
   243  H          0.90460000       0.04390000       0.27950000
   244  H          0.09540000       0.54390000       0.22050000
   245  O          0.72623150       0.42151120       0.59949110
   246  O          0.27376850       0.92151120       0.90050890
   247  O          0.27376850       0.57848880       0.40050890
   248  O          0.72623150       0.07848880       0.09949110
   249  H          0.71720000       0.42720000       0.54020000
   250  H          0.28280000       0.92720000       0.95980000
   251  H          0.28280000       0.57280000       0.45980000
   252  H          0.71720000       0.07280000       0.04020000
   253  H          0.75420000       0.47920000       0.62271900
   254  H          0.24580000       0.97920000       0.87728100
   255  H          0.24580000       0.52080000       0.37728100
   256  H          0.75420000       0.02080000       0.12271900
