data_CIGDED
_symmetry_space_group_name_H-M    'P1'
_symmetry_Int_Tables_number       1
loop_
_symmetry_equiv_pos_site_id
_symmetry_equiv_pos_as_xyz
1 x,y,z
_cell_length_a                   9.00724
_cell_length_b                   10.14534
_cell_length_c                   11.23615
_cell_angle_alpha                69.1102
_cell_angle_beta                 81.1582
_cell_angle_gamma                69.8942
loop_
_atom_site_label
_atom_site_type_symbol
_atom_site_fract_x
_atom_site_fract_y
_atom_site_fract_z
     1  N          0.17153180       0.81437830       0.37318150
     2  N          0.82846820       0.18562170       0.62681850
     3  H          0.25470000       0.73800000       0.39220000
     4  H          0.74530000       0.26200000       0.60780000
     5  C          0.18152000       0.94648000       0.36788170
     6  C          0.81848000       0.05352000       0.63211830
     7  C          0.32502000       0.95658000       0.39554180
     8  C          0.67498000       0.04342000       0.60445820
     9  H          0.41390000       0.87310000       0.41720000
    10  H          0.58610000       0.12690000       0.58280000
    11  C          0.32942000       0.09242000       0.38957180
    12  C          0.67058000       0.90758000       0.61042820
    13  H          0.42280000       0.10040000       0.40730000
    14  H          0.57720000       0.89960000       0.59270000
    15  C          0.19502000       0.22142000       0.35706190
    16  C          0.80498000       0.77858000       0.64293810
    17  H          0.20150000       0.31210000       0.35410000
    18  H          0.79850000       0.68790000       0.64590000
    19  C          0.05622000       0.21322000       0.33016190
    20  C          0.94378000       0.78678000       0.66983810
    21  H          0.96880000       0.29810000       0.30870000
    22  H          0.03120000       0.70190000       0.69130000
    23  C          0.04542000       0.07422000       0.33497170
    24  C          0.95458000       0.92578000       0.66502830
    25  C          0.90678000       0.05882000       0.30899180
    26  C          0.09322000       0.94118000       0.69100820
    27  H          0.81770000       0.14200000       0.28650000
    28  H          0.18230000       0.85800000       0.71350000
    29  C          0.89958000       0.92118000       0.31619170
    30  C          0.10042000       0.07882000       0.68380830
    31  C          0.75998000       0.89928000       0.29225180
    32  C          0.24002000       0.10072000       0.70774820
    33  H          0.66890000       0.98000000       0.26780000
    34  H          0.33110000       0.02000000       0.73220000
    35  C          0.75968000       0.76078000       0.30510190
    36  C          0.24032000       0.23922000       0.69489810
    37  H          0.66810000       0.74700000       0.29050000
    38  H          0.33190000       0.25300000       0.70950000
    39  C          0.89847000       0.63738000       0.34062000
    40  C          0.10153000       0.36262000       0.65938000
    41  H          0.89590000       0.54350000       0.34960000
    42  H          0.10410000       0.45650000       0.65040000
    43  C          0.03572000       0.65278000       0.36211190
    44  C          0.96428000       0.34722000       0.63788810
    45  H          0.12610000       0.57090000       0.38410000
    46  H          0.87390000       0.42910000       0.61590000
    47  C          0.03812000       0.79568000       0.35032180
    48  C          0.96188000       0.20432000       0.64967820
    49  C          0.85013000       0.70363000      -0.00482000
    50  C          0.14987000       0.29637000       0.00482000
    51  H          0.84590000       0.61070000       0.00260000
    52  H          0.15410000       0.38930000      -0.00260000
    53  C          0.98643000       0.71712000       0.02012000
    54  C          0.01357000       0.28288000       0.97988000
    55  H          0.07450000       0.63320000       0.04390000
    56  H          0.92550000       0.36680000       0.95610000
    57  C         -0.00378000       0.85852000       0.01004180
    58  C          0.00378000       0.14148000      -0.01004180
    59  C          0.13412000       0.87542000       0.03617180
    60  C          0.86588000       0.12458000       0.96382820
    61  H          0.22300000       0.79240000       0.06040000
    62  H          0.77700000       0.20760000       0.93960000
    63  C          0.14152000       0.01372000       0.02680180
    64  C          0.85848000       0.98628000       0.97319820
    65  C          0.28192000       0.03292000       0.05292000
    66  C          0.71808000       0.96708000       0.94708000
    67  H          0.37160000       0.95090000       0.07780000
    68  H          0.62840000       0.04910000       0.92220000
    69  C          0.28553000       0.16983000       0.04182000
    70  C          0.71447000       0.83017000       0.95818000
    71  H          0.37790000       0.18050000       0.05860000
    72  H          0.62210000       0.81950000       0.94140000
    73  C          0.50202000       0.44962000       0.18608190
    74  C          0.49798000       0.55038000       0.81391810
    75  O          0.45342170       0.61401150       0.32442150
    76  O          0.54657830       0.38598850       0.67557850
    77  O          0.68341160       0.39098160       0.36721140
    78  O          0.31658840       0.60901840       0.63278860
    79  O          0.41767180       0.37082170       0.42310140
    80  O          0.58232820       0.62917830       0.57689860
    81  F          0.55973170       0.31026150       0.18299130
    82  F          0.44026830       0.68973850       0.81700870
    83  F          0.35126150       0.50039140       0.15305120
    84  F          0.64873850       0.49960860       0.84694880
    85  F          0.57997190       0.53039190       0.09750130
    86  F          0.42002810       0.46960810       0.90249870
    87  S          0.51640500       0.45627500       0.34402500
    88  S          0.48359500       0.54372500       0.65597500
