data_CIHDUV
_symmetry_space_group_name_H-M    'P1'
_symmetry_Int_Tables_number       1
loop_
_symmetry_equiv_pos_site_id
_symmetry_equiv_pos_as_xyz
1 x,y,z
_cell_length_a                   12.209416
_cell_length_b                   13.492018
_cell_length_c                   13.208418
_cell_angle_alpha                90.0
_cell_angle_beta                 91.9202
_cell_angle_gamma                90.0
loop_
_atom_site_label
_atom_site_type_symbol
_atom_site_fract_x
_atom_site_fract_y
_atom_site_fract_z
     1  S          0.66269600       0.17668600       0.02035500
     2  S          0.66269600       0.82331400       0.52035500
     3  S          0.16269600       0.67668600       0.02035500
     4  S          0.16269600       0.32331400       0.52035500
     5  O          0.76142000       0.92428830       0.08547170
     6  O          0.76142000       0.07571170       0.58547170
     7  O          0.26142000       0.42428830       0.08547170
     8  O          0.26142000       0.57571170       0.58547170
     9  H          0.78970000       0.94410000       0.14070000
    10  H          0.78970000       0.05590000       0.64070000
    11  H          0.28970000       0.44410000       0.14070000
    12  H          0.28970000       0.55590000       0.64070000
    13  C          0.62343000       0.04483000       0.88198000
    14  C          0.62343000       0.95517000       0.38198000
    15  C          0.12343000       0.54483000       0.88198000
    16  C          0.12343000       0.45517000       0.38198000
    17  O          0.72772000       0.26412000       0.01452000
    18  O          0.72772000       0.73588000       0.51452000
    19  O          0.22772000       0.76412000       0.01452000
    20  O          0.22772000       0.23588000       0.51452000
    21  O          0.55842000       0.18621190       0.06162000
    22  O          0.55842000       0.81378810       0.56162000
    23  O          0.05842000       0.68621190       0.06162000
    24  O          0.05842000       0.31378810       0.56162000
    25  O          0.64302000       0.14457190       0.90230810
    26  O          0.64302000       0.85542810       0.40230810
    27  O          0.14302000       0.64457190       0.90230810
    28  O          0.14302000       0.35542810       0.40230810
    29  C          0.71622000      -0.00062000       0.03682000
    30  C          0.71622000       0.00062000       0.53682000
    31  C          0.21622000       0.49938000       0.03682000
    32  C          0.21622000       0.50062000       0.53682000
    33  C          0.65763000       0.97547000       0.94427000
    34  C          0.65763000       0.02453000       0.44427000
    35  C          0.15763000       0.47547000       0.94427000
    36  C          0.15763000       0.52453000       0.44427000
    37  N          0.73142000       0.08942000       0.07262000
    38  N          0.73142000       0.91058000       0.57262000
    39  N          0.23142000       0.58942000       0.07262000
    40  N          0.23142000       0.41058000       0.57262000
    41  C          0.56653000       0.03023000       0.78057000
    42  C          0.56653000       0.96977000       0.28057000
    43  C          0.06653000       0.53023000       0.78057000
    44  C          0.06653000       0.46977000       0.28057000
    45  H          0.56370000       0.95940000       0.76460000
    46  H          0.56370000       0.04060000       0.26460000
    47  H          0.06370000       0.45940000       0.76460000
    48  H          0.06370000       0.54060000       0.26460000
    49  H          0.60690000       0.06520000       0.72860000
    50  H          0.60690000       0.93480000       0.22860000
    51  H          0.10690000       0.56520000       0.72860000
    52  H          0.10690000       0.43480000       0.22860000
    53  H          0.49180000       0.05660000       0.78250000
    54  H          0.49180000       0.94340000       0.28250000
    55  H         -0.00820000       0.55660000       0.78250000
    56  H         -0.00820000       0.44340000       0.28250000
    57  H          0.64420000       0.91680000       0.93280000
    58  H          0.64420000       0.08320000       0.43280000
    59  H          0.14420000       0.41680000       0.93280000
    60  H          0.14420000       0.58320000       0.43280000
    61  S          0.22931500       0.17564600       0.80090500
    62  S          0.22931500       0.82435400       0.30090500
    63  S          0.72931500       0.67564600       0.80090500
    64  S          0.72931500       0.32435400       0.30090500
    65  C          0.23833000       0.97637000       0.87982000
    66  C          0.23833000       0.02363000       0.37982000
    67  C          0.73833000       0.47637000       0.87982000
    68  C          0.73833000       0.52363000       0.37982000
    69  O          0.33572000       0.17856170       0.76002000
    70  O          0.33572000       0.82143830       0.26002000
    71  O          0.83572000       0.67856170       0.76002000
    72  O          0.83572000       0.32143830       0.26002000
    73  C          0.17542000      -0.00182000       0.78852000
    74  C          0.17542000       0.00182000       0.28852000
    75  C          0.67542000       0.49818000       0.78852000
    76  C          0.67542000       0.50182000       0.28852000
    77  N          0.15742000       0.08695190       0.75312000
    78  N          0.15742000       0.91304810       0.25312000
    79  N          0.65742000       0.58695190       0.75312000
    80  N          0.65742000       0.41304810       0.25312000
    81  O          0.24842180       0.14653180       0.92047180
    82  O          0.24842180       0.85346820       0.42047180
    83  O          0.74842180       0.64653180       0.92047180
    84  O          0.74842180       0.35346820       0.42047180
    85  O          0.13160190       0.92218840       0.74188180
    86  O          0.13160190       0.07781160       0.24188180
    87  O          0.63160190       0.42218840       0.74188180
    88  O          0.63160190       0.57781160       0.24188180
    89  C          0.32593000       0.03703000       0.04383000
    90  C          0.32593000       0.96297000       0.54383000
    91  C          0.82593000       0.53703000       0.04383000
    92  C          0.82593000       0.46297000       0.54383000
    93  H          0.32750000       0.96660000       0.06230000
    94  H          0.32750000       0.03340000       0.56230000
    95  H          0.82750000       0.46660000       0.06230000
    96  H          0.82750000       0.53340000       0.56230000
    97  H          0.28620000       0.07430000       0.09460000
    98  H          0.28620000       0.92570000       0.59460000
    99  H          0.78620000       0.57430000       0.09460000
   100  H          0.78620000       0.42570000       0.59460000
   101  H          0.40100000       0.06210000       0.04100000
   102  H          0.40100000       0.93790000       0.54100000
   103  H          0.90100000       0.56210000       0.04100000
   104  H          0.90100000       0.43790000       0.54100000
   105  O          0.16632000       0.26337180       0.80362000
   106  O          0.16632000       0.73662820       0.30362000
   107  O          0.66632000       0.76337180       0.80362000
   108  O          0.66632000       0.23662820       0.30362000
   109  C          0.27022000       0.04892000       0.94412000
   110  C          0.27022000       0.95108000       0.44412000
   111  C          0.77022000       0.54892000       0.94412000
   112  C          0.77022000       0.45108000       0.44412000
   113  H          0.24740000       0.91270000       0.90630000
   114  H          0.24740000       0.08730000       0.40630000
   115  H          0.74740000       0.41270000       0.90630000
   116  H          0.74740000       0.58730000       0.40630000
   117  H          0.08540000       0.93060000       0.68040000
   118  H          0.08540000       0.06940000       0.18040000
   119  H          0.58540000       0.43060000       0.68040000
   120  H          0.58540000       0.56940000       0.18040000
   121  O          0.86692190       0.03982170       0.75527180
   122  O          0.86692190       0.96017830       0.25527180
   123  O          0.36692190       0.53982170       0.75527180
   124  O          0.36692190       0.46017830       0.25527180
   125  C          0.90542000       0.08562000       0.82923000
   126  C          0.90542000       0.91438000       0.32923000
   127  C          0.40542000       0.58562000       0.82923000
   128  C          0.40542000       0.41438000       0.32923000
   129  O          0.94632000       0.33630100       0.91172000
   130  O          0.94632000       0.66369900       0.41172000
   131  O          0.44632000       0.83630100       0.91172000
   132  O          0.44632000       0.16369900       0.41172000
   133  N          0.90892000       0.18843190       0.83292000
   134  N          0.90892000       0.81156810       0.33292000
   135  N          0.40892000       0.68843190       0.83292000
   136  N          0.40892000       0.31156810       0.33292000
   137  N         -0.00918000       0.19624180      -0.00148000
   138  N         -0.00918000       0.80375820       0.49852000
   139  N          0.49082000       0.69624180      -0.00148000
   140  N          0.49082000       0.30375820       0.49852000
   141  C          0.02783000       0.25153000       0.08763000
   142  C          0.02783000       0.74847000       0.58763000
   143  C          0.52783000       0.75153000       0.08763000
   144  C          0.52783000       0.24847000       0.58763000
   145  H          0.01530000       0.21210000       0.14850000
   146  H          0.01530000       0.78790000       0.64850000
   147  H          0.51530000       0.71210000       0.14850000
   148  H          0.51530000       0.28790000       0.64850000
   149  H          0.98690000       0.31390000       0.09110000
   150  H          0.98690000       0.68610000       0.59110000
   151  H          0.48690000       0.81390000       0.09110000
   152  H          0.48690000       0.18610000       0.59110000
   153  H          0.10620000       0.26590000       0.08340000
   154  H          0.10620000       0.73410000       0.58340000
   155  H          0.60620000       0.76590000       0.08340000
   156  H          0.60620000       0.23410000       0.58340000
   157  C          0.95173000       0.04117140       0.91743000
   158  C          0.95173000       0.95882860       0.41743000
   159  C          0.45173000       0.54117140       0.91743000
   160  C          0.45173000       0.45882860       0.41743000
   161  C          0.01712000       0.94349820       0.03732000
   162  C          0.01712000       0.05650180       0.53732000
   163  C          0.51712000       0.44349820       0.03732000
   164  C          0.51712000       0.55650180       0.53732000
   165  C          0.94823000       0.24664140       0.91503000
   166  C          0.94823000       0.75335860       0.41503000
   167  C          0.44823000       0.74664140       0.91503000
   168  C          0.44823000       0.25335860       0.41503000
   169  N          0.03372000       0.03542000       0.07262000
   170  N          0.03372000       0.96458000       0.57262000
   171  N          0.53372000       0.53542000       0.07262000
   172  N          0.53372000       0.46458000       0.57262000
   173  C         -0.00748000       0.09542000      -0.00228000
   174  C         -0.00748000       0.90458000       0.49772000
   175  C          0.49252000       0.59542000      -0.00228000
   176  C          0.49252000       0.40458000       0.49772000
   177  C          0.93193000       0.85464820       0.88852000
   178  C          0.93193000       0.14535180       0.38852000
   179  C          0.43193000       0.35464820       0.88852000
   180  C          0.43193000       0.64535180       0.38852000
   181  H          0.95440000       0.79480000       0.92580000
   182  H          0.95440000       0.20520000       0.42580000
   183  H          0.45440000       0.29480000       0.92580000
   184  H          0.45440000       0.70520000       0.42580000
   185  H          0.96530000       0.85480000       0.82200000
   186  H          0.96530000       0.14520000       0.32200000
   187  H          0.46530000       0.35480000       0.82200000
   188  H          0.46530000       0.64520000       0.32200000
   189  H          0.85190000       0.85560000       0.87950000
   190  H          0.85190000       0.14440000       0.37950000
   191  H          0.35190000       0.35560000       0.87950000
   192  H          0.35190000       0.64440000       0.37950000
   193  N          0.96807150       0.94273860       0.94578150
   194  N          0.96807150       0.05726140       0.44578150
   195  N          0.46807150       0.44273860       0.94578150
   196  N          0.46807150       0.55726140       0.44578150
   197  C          0.86913000       0.24463000       0.74323000
   198  C          0.86913000       0.75537000       0.24323000
   199  C          0.36913000       0.74463000       0.74323000
   200  C          0.36913000       0.25537000       0.24323000
   201  H          0.91350000       0.22770000       0.68520000
   202  H          0.91350000       0.77230000       0.18520000
   203  H          0.41350000       0.72770000       0.68520000
   204  H          0.41350000       0.27230000       0.18520000
   205  H          0.87510000       0.31580000       0.75710000
   206  H          0.87510000       0.68420000       0.25710000
   207  H          0.37510000       0.81580000       0.75710000
   208  H          0.37510000       0.18420000       0.25710000
   209  H          0.79230000       0.22760000       0.72780000
   210  H          0.79230000       0.77240000       0.22780000
   211  H          0.29230000       0.72760000       0.72780000
   212  H          0.29230000       0.27240000       0.22780000
   213  H          0.04120000       0.88280000       0.06820000
   214  H          0.04120000       0.11720000       0.56820000
   215  H          0.54120000       0.38280000       0.06820000
   216  H          0.54120000       0.61720000       0.56820000
