data_CIKKUE
_symmetry_space_group_name_H-M    'P1'
_symmetry_Int_Tables_number       1
loop_
_symmetry_equiv_pos_site_id
_symmetry_equiv_pos_as_xyz
1 x,y,z
_cell_length_a                   17.76434
_cell_length_b                   8.02822
_cell_length_c                   18.59267
_cell_angle_alpha                90.0
_cell_angle_beta                 111.59621
_cell_angle_gamma                90.0
loop_
_atom_site_label
_atom_site_type_symbol
_atom_site_fract_x
_atom_site_fract_y
_atom_site_fract_z
     1  O          0.43653800       0.14274150       0.32540800
     2  O          0.06346200       0.64274150       0.67459200
     3  O          0.56346200       0.85725850       0.67459200
     4  O          0.93653800       0.35725850       0.32540800
     5  N          0.45007800       0.79554170       0.36206800
     6  N          0.04992200       0.29554170       0.63793200
     7  N          0.54992200       0.20445830       0.63793200
     8  N          0.95007800       0.70445830       0.36206800
     9  N          0.47160900       0.84433180       0.30521900
    10  N          0.02839100       0.34433180       0.69478100
    11  N          0.52839100       0.15566820       0.69478100
    12  N          0.97160900       0.65566820       0.30521900
    13  C          0.42548100       0.91102000       0.39993100
    14  C          0.07451900       0.41102000       0.60006900
    15  C          0.57451900       0.08898000       0.60006900
    16  C          0.92548100       0.58898000       0.39993100
    17  C          0.41771110       0.08732000       0.38004110
    18  C          0.08228890       0.58732000       0.61995890
    19  C          0.58228890       0.91268000       0.61995890
    20  C          0.91771110       0.41268000       0.38004110
    21  C          0.38620120       0.19553000       0.42372130
    22  C          0.11379880       0.69553000       0.57627870
    23  C          0.61379880       0.80447000       0.57627870
    24  C          0.88620120       0.30447000       0.42372130
    25  C          0.36510120       0.13743000       0.48101130
    26  C          0.13489880       0.63743000       0.51898870
    27  C          0.63489880       0.86257000       0.51898870
    28  C          0.86510120       0.36257000       0.48101130
    29  C          0.37287100       0.96582000       0.50348110
    30  C          0.12712900       0.46582000       0.49651890
    31  C          0.62712900       0.03418000       0.49651890
    32  C          0.87287100       0.53418000       0.50348110
    33  C          0.40309100       0.85112000       0.46335100
    34  C          0.09690900       0.35112000       0.53664900
    35  C          0.59690900       0.14888000       0.53664900
    36  C          0.90309100       0.64888000       0.46335100
    37  C          0.34992140       0.90833000       0.56351130
    38  C          0.15007860       0.40833000       0.43648870
    39  C          0.65007860       0.09167000       0.43648870
    40  C          0.84992140       0.59167000       0.56351130
    41  C          0.35656160       0.74343000       0.58348150
    42  C          0.14343840       0.24343000       0.41651850
    43  C          0.64343840       0.25657000       0.41651850
    44  C          0.85656160       0.75657000       0.58348150
    45  C          0.38661150       0.63113000       0.54445140
    46  C          0.11338850       0.13113000       0.45554860
    47  C          0.61338850       0.36887000       0.45554860
    48  C          0.88661150       0.86887000       0.54445140
    49  C          0.40958130       0.68353000       0.48525120
    50  C          0.09041870       0.18353000       0.51474880
    51  C          0.59041870       0.31647000       0.51474880
    52  C          0.90958130       0.81647000       0.48525120
    53  C          0.49298900       0.72763190       0.26076100
    54  C          0.00701100       0.22763190       0.73923900
    55  C          0.50701100       0.27236810       0.73923900
    56  C         -0.00701100       0.77236810       0.26076100
    57  C          0.48709110       0.55872000       0.27167110
    58  C          0.01290890       0.05872000       0.72832890
    59  C          0.51290890       0.44128000       0.72832890
    60  C          0.98709110       0.94128000       0.27167110
    61  C          0.50697120       0.44602000       0.22470120
    62  C         -0.00697120       0.94602000       0.77529880
    63  C          0.49302880       0.55398000       0.77529880
    64  C          0.00697120       0.05398000       0.22470120
    65  C          0.53112110       0.49922000       0.16692120
    66  C          0.96887890      -0.00078000       0.83307880
    67  C          0.46887890       0.50078000       0.83307880
    68  C          0.03112110       0.00078000       0.16692120
    69  C          0.53820100       0.67032000       0.15427100
    70  C          0.96179900       0.17032000       0.84572900
    71  C          0.46179900       0.32968000       0.84572900
    72  C          0.03820100       0.82968000       0.15427100
    73  C          0.51996100       0.78822190       0.20244100
    74  C          0.98003900       0.28822190       0.79755900
    75  C          0.48003900       0.21177810       0.79755900
    76  C          0.01996100       0.71177810       0.20244100
    77  C          0.52946130       0.95882000       0.18926130
    78  C          0.97053870       0.45882000       0.81073870
    79  C          0.47053870       0.04118000       0.81073870
    80  C          0.02946130       0.54118000       0.18926130
    81  C          0.55475140       0.00873000       0.13206140
    82  C          0.94524860       0.50873000       0.86793860
    83  C          0.44524860      -0.00873000       0.86793860
    84  C          0.05475140       0.49127000       0.13206140
    85  C          0.57175120       0.89353000       0.08416130
    86  C          0.92824880       0.39353000       0.91583870
    87  C          0.42824880       0.10647000       0.91583870
    88  C          0.07175120       0.60647000       0.08416130
    89  C          0.56402110       0.72843000       0.09509120
    90  C          0.93597890       0.22843000       0.90490880
    91  C          0.43597890       0.27157000       0.90490880
    92  C          0.06402110       0.77157000       0.09509120
    93  H          0.46871200       0.96430000       0.29721300
    94  H          0.03128800       0.46430000       0.70278700
    95  H          0.53128800       0.03570000       0.70278700
    96  H          0.96871200       0.53570000       0.29721300
    97  H          0.37891300       0.31230000       0.40701300
    98  H          0.12108700       0.81230000       0.59298700
    99  H          0.62108700       0.68770000       0.59298700
   100  H          0.87891300       0.18770000       0.40701300
   101  H          0.34121300       0.20730000       0.50741300
   102  H          0.15878700       0.70730000       0.49258700
   103  H          0.65878700       0.79270000       0.49258700
   104  H          0.84121300       0.29270000       0.50741300
   105  H          0.32801300      -0.01170000       0.58721400
   106  H          0.17198700       0.48830000       0.41278600
   107  H          0.67198700       0.01170000       0.41278600
   108  H          0.82801300       0.51170000       0.58721400
   109  H          0.33701400       0.70030000       0.62161500
   110  H          0.16298600       0.20030000       0.37838500
   111  H          0.66298600       0.29970000       0.37838500
   112  H          0.83701400       0.79970000       0.62161500
   113  H          0.38941400       0.50730000       0.55901400
   114  H          0.11058600       0.00730000       0.44098600
   115  H          0.61058600       0.49270000       0.44098600
   116  H          0.88941400      -0.00730000       0.55901400
   117  H          0.43291200       0.60820000       0.45751200
   118  H          0.06708800       0.10820000       0.54248800
   119  H          0.56708800       0.39180000       0.54248800
   120  H          0.93291200       0.89180000       0.45751200
   121  H          0.46839000       0.51620000       0.31531000
   122  H          0.03161000       0.01620000       0.68469000
   123  H          0.53161000       0.48380000       0.68469000
   124  H          0.96839000      -0.01620000       0.31531000
   125  H          0.50231300       0.32730000       0.23511300
   126  H         -0.00231300       0.82730000       0.76488700
   127  H          0.49768700       0.67270000       0.76488700
   128  H          0.00231300       0.17270000       0.23511300
   129  H          0.54161200       0.41730000       0.12921200
   130  H          0.95838800       0.91730000       0.87078800
   131  H          0.45838800       0.58270000       0.87078800
   132  H          0.04161200       0.08270000       0.12921200
   133  H          0.52061100       0.04230000       0.22401200
   134  H          0.97938900       0.54230000       0.77598800
   135  H          0.47938900       0.95770000       0.77598800
   136  H          0.02061100       0.45770000       0.22401200
   137  H          0.56071400       0.12730000       0.12441400
   138  H          0.93928600       0.62730000       0.87558600
   139  H          0.43928600       0.87270000       0.87558600
   140  H          0.06071400       0.37270000       0.12441400
   141  H          0.59121200       0.93230000       0.04281200
   142  H          0.90878800       0.43230000       0.95718800
   143  H          0.40878800       0.06770000       0.95718800
   144  H          0.09121200       0.56770000       0.04281200
   145  H          0.57741100       0.64020000       0.06181200
   146  H          0.92258900       0.14020000       0.93818800
   147  H          0.42258900       0.35980000       0.93818800
   148  H          0.07741100       0.85980000       0.06181200
   149  N          0.22699110       0.26062000       0.25367110
   150  N          0.27300890       0.76062000       0.74632890
   151  N          0.77300890       0.73938000       0.74632890
   152  N          0.72699110       0.23938000       0.25367110
   153  N          0.19106110       0.81232000       0.36746110
   154  N          0.30893890       0.31232000       0.63253890
   155  N          0.80893890       0.18768000       0.63253890
   156  N          0.69106110       0.68768000       0.36746110
   157  N          0.37235120       0.68902000       0.95669890
   158  N          0.12764880       0.18902000       0.04330110
   159  N          0.62764880       0.31098000       0.04330110
   160  N          0.87235120       0.81098000       0.95669890
   161  N          0.33770110       0.23682000       0.06630110
   162  N          0.16229890       0.73682000       0.93369890
   163  N          0.66229890       0.76318000       0.93369890
   164  N          0.83770110       0.26318000       0.06630110
   165  C          0.26594900       0.84622000       0.21830100
   166  C          0.23405100       0.34622000       0.78169900
   167  C          0.73405100       0.15378000       0.78169900
   168  C          0.76594900       0.65378000       0.21830100
   169  C          0.26869110       0.66752000       0.22380110
   170  C          0.23130890       0.16752000       0.77619890
   171  C          0.73130890       0.33248000       0.77619890
   172  C          0.76869110       0.83248000       0.22380110
   173  C          0.29287100       0.57582000       0.17636110
   174  C          0.20712900       0.07582000       0.82363890
   175  C          0.70712900       0.42418000       0.82363890
   176  C          0.79287100       0.92418000       0.17636110
   177  C          0.31672900       0.65142000       0.11790100
   178  C          0.18327100       0.15142000       0.88209900
   179  C          0.68327100       0.34858000       0.88209900
   180  C          0.81672900       0.84858000       0.11790100
   181  C          0.31675100       0.83042000       0.11449100
   182  C          0.18324900       0.33042000       0.88550900
   183  C          0.68324900       0.16958000       0.88550900
   184  C          0.81675100       0.66958000       0.11449100
   185  C          0.29271100       0.92272000       0.16197100
   186  C          0.20728900       0.42272000       0.83802900
   187  C          0.70728900       0.07728000       0.83802900
   188  C          0.79271100       0.57728000       0.16197100
   189  C          0.23867100       0.94202000       0.26508100
   190  C          0.26132900       0.44202000       0.73491900
   191  C          0.76132900       0.05798000       0.73491900
   192  C          0.73867100       0.55798000       0.26508100
   193  C          0.21209100       0.86942000       0.32182110
   194  C          0.28790900       0.36942000       0.67817890
   195  C          0.78790900       0.13058000       0.67817890
   196  C          0.71209100       0.63058000       0.32182110
   197  C          0.23213110       0.11912000       0.25837110
   198  C          0.26786890       0.61912000       0.74162890
   199  C          0.76786890       0.88088000       0.74162890
   200  C          0.73213110       0.38088000       0.25837110
   201  C          0.33723100       0.55722000       0.06635100
   202  C          0.16276900       0.05722000       0.93364900
   203  C          0.66276900       0.44278000       0.93364900
   204  C          0.83723100       0.94278000       0.06635100
   205  C          0.33780110       0.37852000       0.06749110
   206  C          0.16219890       0.87852000       0.93250890
   207  C          0.66219890       0.62148000       0.93250890
   208  C          0.83780110       0.12148000       0.06749110
   209  C          0.35756110       0.63102000       0.00591110
   210  C          0.14243890       0.13102000      -0.00591110
   211  C          0.64243890       0.36898000      -0.00591110
   212  C          0.85756110       0.86898000       0.00591110
   213  H          0.25211100       0.61020000       0.26331100
   214  H          0.24788900       0.11020000       0.73668900
   215  H          0.74788900       0.38980000       0.73668900
   216  H          0.75211100       0.88980000       0.26331100
   217  H          0.29461000       0.45730000       0.17961100
   218  H          0.20539000       0.95730000       0.82038900
   219  H          0.70539000       0.54270000       0.82038900
   220  H          0.79461000       0.04270000       0.17961100
   221  H          0.33471000       0.88520000       0.07671100
   222  H          0.16529000       0.38520000       0.92328900
   223  H          0.66529000       0.11480000       0.92328900
   224  H          0.83471000       0.61480000       0.07671100
   225  H          0.29281000       0.03920000       0.15941100
   226  H          0.20719000       0.53920000       0.84058900
   227  H          0.70719000       0.96080000       0.84058900
   228  H          0.79281000       0.46080000       0.15941100
