data_CIMCEI
_symmetry_space_group_name_H-M    'P1'
_symmetry_Int_Tables_number       1
loop_
_symmetry_equiv_pos_site_id
_symmetry_equiv_pos_as_xyz
1 x,y,z
_cell_length_a                   9.146918
_cell_length_b                   10.3682
_cell_length_c                   12.0922
_cell_angle_alpha                86.483
_cell_angle_beta                 88.753
_cell_angle_gamma                75.413
loop_
_atom_site_label
_atom_site_type_symbol
_atom_site_fract_x
_atom_site_fract_y
_atom_site_fract_z
     1  C          0.03251300       0.25381300       0.87279000
     2  C          0.96748700       0.74618700       0.12721000
     3  C          0.21411400       0.76651300       0.47848000
     4  C          0.78588600       0.23348700       0.52152000
     5  C          0.11331300       0.53981200       0.55729000
     6  C          0.88668700       0.46018800       0.44271000
     7  C          0.10801200       0.72411200       0.41418000
     8  C          0.89198800       0.27588800       0.58582000
     9  C          0.23391200       0.57431200       0.61258000
    10  C          0.76608800       0.42568800       0.38742000
    11  C          0.04221300       0.79761300       0.31778000
    12  C          0.95778700       0.20238700       0.68222000
    13  C          0.05661200       0.60951200       0.45688000
    14  C          0.94338800       0.39048800       0.54312000
    15  C          0.20121400       0.39791400       0.88809000
    16  C          0.79878600       0.60208600       0.11191000
    17  C          0.10631300       0.36781200       0.70859000
    18  C          0.89368700       0.63218800       0.29141000
    19  C          0.05841200       0.43151300       0.60048000
    20  C          0.94158800       0.56848700       0.39952000
    21  C          0.29921300       0.49781300       0.70929000
    22  C          0.70078700       0.50218700       0.29071000
    23  C          0.96418700       0.72961300       0.24349000
    24  C          0.03581300       0.27038700       0.75651000
    25  C          0.30121300       0.66971200       0.56188000
    26  C          0.69878700       0.33028800       0.43812000
    27  C          0.44961300       0.49461400       0.73509000
    28  C          0.55038700       0.50538600       0.26491000
    29  C          0.11531400       0.31891400       0.93769000
    30  C          0.88468600       0.68108600       0.06231000
    31  C          0.20531100       0.41961300       0.77169000
    32  C          0.79468900       0.58038700       0.22831000
    33  C          0.05021400       0.93001300       0.30489000
    34  C          0.94978600       0.06998700       0.69511000
    35  C          0.13361400       0.98341300       0.37669000
    36  C          0.86638600       0.01658700       0.62331000
    37  C          0.21661400       0.90421300       0.46009000
    38  C          0.78338600       0.09578700       0.53991000
    39  C          0.45471400       0.66221400       0.58741000
    40  C          0.54528600       0.33778600       0.41259000
    41  C          0.52581300       0.57801400       0.67509000
    42  C          0.47418700       0.42198600       0.32491000
    43  Cl         0.30324000       0.97623000       0.55652000
    44  Cl         0.69676000       0.02377000       0.44348000
    45  Cl         0.13194000       0.14993000       0.36332000
    46  Cl         0.86806000       0.85007000       0.63668000
    47  Cl         0.28284000       0.49064000       0.97232000
    48  Cl         0.71716000       0.50936000       0.02768000
    49  Cl         0.56474000       0.73994000       0.50122000
    50  Cl         0.43526000       0.26006000       0.49878000
    51  Cl         0.10444000       0.30044000       0.08042000
    52  Cl         0.89556000       0.69956000       0.91958000
    53  Cl         0.70913000       0.57114000       0.70772000
    54  Cl         0.29087000       0.42886000       0.29228000
    55  Cl         0.90516000       0.17664000       0.94042000
    56  Cl         0.09484000       0.82336000       0.05958000
    57  Cl         0.55504000       0.36954000       0.82312000
    58  Cl         0.44496000       0.63046000       0.17688000
    59  Cl         0.93096000       0.04094000       0.21292000
    60  Cl         0.06904000       0.95906000       0.78708000
    61  C          0.46801900       0.93020000       0.84511300
    62  C          0.53198100       0.06980000       0.15488700
    63  S          0.49559000       0.05697000       0.78266000
    64  S          0.50441000       0.94303000       0.21734000
    65  S          0.43846000       0.79886000       0.89984000
    66  S          0.56154000       0.20114000       0.10016000
