data_CINSID
_symmetry_space_group_name_H-M    'P1'
_symmetry_Int_Tables_number       1
loop_
_symmetry_equiv_pos_site_id
_symmetry_equiv_pos_as_xyz
1 x,y,z
_cell_length_a                   11.5938
_cell_length_b                   4.7665
_cell_length_c                   22.783
_cell_angle_alpha                90.0
_cell_angle_beta                 93.389
_cell_angle_gamma                90.0
loop_
_atom_site_label
_atom_site_type_symbol
_atom_site_fract_x
_atom_site_fract_y
_atom_site_fract_z
     1  Cl         0.75900000       0.08200000       0.58020000
     2  Cl         0.24100000       0.58200000       0.41980000
     3  O          0.86310000       0.59900000       0.84630000
     4  O          0.13690000       0.09900000       0.15370000
     5  O          0.19010000       0.80890000       0.62090000
     6  O          0.80990000       0.30890000       0.37910000
     7  C          0.57910000       0.53190000       0.61150000
     8  C          0.42090000       0.03190000       0.38850000
     9  O          0.59410000       0.48490000       0.95610000
    10  O          0.40590000      -0.01510000       0.04390000
    11  C          0.83810000       0.14100000       0.69410000
    12  C          0.16190000       0.64100000       0.30590000
    13  O          0.78500000       0.82500000      -0.00260000
    14  O          0.21500000       0.32500000       0.00260000
    15  C          0.75310000       0.26100000       0.64860000
    16  C          0.24690000       0.76100000       0.35140000
    17  O          0.54700000       0.49710000       0.82610000
    18  O          0.45300000      -0.00290000       0.17390000
    19  C          0.33410000       0.03900000       0.56010000
    20  C          0.66590000       0.53900000       0.43990000
    21  C          0.48510000       0.35590000       0.61510000
    22  C          0.51490000       0.85590000       0.38490000
    23  C          0.74500000       0.65510000       0.82110000
    24  C          0.25500000       0.15510000       0.17890000
    25  C          0.82810000       0.28490000       0.74610000
    26  C          0.17190000       0.78490000       0.25390000
    27  C          0.87110000       0.78200000       0.90410000
    28  C          0.12890000       0.28200000       0.09590000
    29  C          0.43110000       0.22300000       0.56510000
    30  C          0.56890000       0.72300000       0.43490000
    31  C          0.28100000       0.96200000       0.60810000
    32  C          0.71900000       0.46200000       0.39190000
    33  C          0.77910000       0.63410000       0.94310000
    34  C          0.22090000       0.13410000       0.05690000
    35  C          0.75300000       0.47690000       0.76010000
    36  C          0.24700000      -0.02310000       0.23990000
    37  C          0.67510000       0.57810000       0.71110000
    38  C          0.32490000       0.07810000       0.28890000
    39  C          0.66710000       0.41500000       0.65710000
    40  C          0.33290000       0.91500000       0.34290000
    41  C          0.66010000       0.48590000       0.85710000
    42  C          0.33990000      -0.01410000       0.14290000
    43  C          0.42500000       0.27910000       0.66210000
    44  C          0.57500000       0.77910000       0.33790000
    45  C          0.13910000       0.68190000       0.56910000
    46  C          0.86090000       0.18190000       0.43090000
    47  C          0.03310000       0.52390000       0.58910000
    48  C          0.96690000       0.02390000       0.41090000
    49  C          0.66600000       0.64600000       0.91610000
    50  C          0.33400000       0.14600000       0.08390000
    51  C          0.33410000       0.10490000       0.66010000
    52  C          0.66590000       0.60490000       0.33990000
    53  O          0.02800000       0.43310000       0.93150000
    54  O          0.97200000       0.93310000       0.06850000
    55  C         -0.01200000       0.69600000       0.92410000
    56  C          0.01200000       0.19600000       0.07590000
    57  H          0.50810000       0.32120000       0.83050000
    58  H          0.49190000       0.82120000       0.16950000
    59  H          0.51580000       0.55120000       0.95210000
    60  H          0.48420000       0.05120000       0.04790000
    61  H          0.05920000       0.36930000       0.89570000
    62  H          0.94080000       0.86930000       0.10430000
    63  H          0.80400000       0.42140000       0.95420000
    64  H          0.19600000       0.92140000       0.04580000
    65  H          0.63660000       0.86060000       0.91220000
    66  H          0.36340000       0.36060000       0.08780000
    67  H          0.84780000      -0.00230000       0.89480000
    68  H          0.15220000       0.49770000       0.10520000
    69  H          0.68860000       0.27070000       0.86110000
    70  H          0.31140000       0.77070000       0.13890000
    71  H          0.73000000       0.87580000       0.81310000
    72  H          0.27000000       0.37580000       0.18690000
    73  H          0.04350000       0.79030000       0.89310000
    74  H          0.95650000       0.29030000       0.10690000
    75  H          0.00310000       0.79430000       0.96650000
    76  H         -0.00310000       0.29430000       0.03350000
    77  H          0.62530000       0.76790000       0.71520000
    78  H          0.37470000       0.26790000       0.28480000
    79  H          0.89710000       0.97040000       0.68730000
    80  H          0.10290000       0.47040000       0.31270000
    81  H          0.89200000       0.23160000       0.78070000
    82  H          0.10800000       0.73160000       0.21930000
    83  H          0.45290000       0.36530000       0.70440000
    84  H          0.54710000       0.86530000       0.29560000
    85  H          0.29540000       0.06520000       0.70130000
    86  H          0.70460000       0.56520000       0.29870000
    87  H          0.30330000       0.96170000       0.51740000
    88  H          0.69670000       0.46170000       0.48260000
    89  H          0.46960000       0.26850000       0.52410000
    90  H          0.53040000       0.76850000       0.47590000
    91  H          0.11350000       0.83990000       0.53690000
    92  H          0.88650000       0.33990000       0.46310000
    93  H          0.19900000       0.53820000       0.55050000
    94  H          0.80100000       0.03820000       0.44950000
    95  H         -0.01040000       0.42130000       0.55180000
    96  H          0.01040000       0.92130000       0.44820000
    97  H          0.06030000       0.36870000       0.62160000
    98  H          0.93970000       0.86870000       0.37840000
    99  H          0.97470000       0.67050000       0.60800000
   100  H          0.02530000       0.17050000       0.39200000
   101  H          0.61190000       0.52480000       0.56810000
   102  H          0.38810000       0.02480000       0.43190000
   103  H          0.55660000       0.74530000       0.62190000
   104  H          0.44340000       0.24530000       0.37810000
   105  O          0.36890000       0.65300000       0.94490000
   106  O          0.63110000       0.15300000       0.05510000
   107  H          0.31420000       0.52180000       0.95900000
   108  H          0.68580000       0.02180000       0.04100000
   109  H          0.39080000       0.78600000       0.97520000
   110  H          0.60920000       0.28600000       0.02480000
   111  O          0.43100000       0.00800000       0.83610000
   112  O          0.56900000       0.50800000       0.16390000
   113  H          0.47080000       0.83280000       0.83270000
   114  H          0.52920000       0.33280000       0.16730000
   115  H          0.38870000       0.00650000       0.87100000
   116  H          0.61130000       0.50650000       0.12900000
   117  O          0.16610000       0.23900000       0.83310000
   118  O          0.83390000       0.73900000       0.16690000
   119  O          0.04610000       0.77090000       0.77510000
   120  O          0.95390000       0.27090000       0.22490000
   121  C          0.19700000       0.43940000       0.80540000
   122  C          0.80300000       0.93940000       0.19460000
   123  C          0.14230000       0.53020000       0.75500000
   124  C          0.85770000       0.03020000       0.24500000
   125  H         -0.00930000       0.86320000       0.79890000
   126  H          0.00930000       0.36320000       0.20110000
   127  H          0.09990000       0.08390000       0.80700000
   128  H          0.90010000       0.58390000       0.19300000
   129  H          0.09860000       0.35820000       0.73220000
   130  H          0.90140000       0.85820000       0.26780000
   131  H          0.20330000       0.62390000       0.72670000
   132  H          0.79670000       0.12390000       0.27330000
   133  H          0.21630000       0.61420000       0.83450000
   134  H          0.78370000       0.11420000       0.16550000
   135  H          0.27620000       0.33350000       0.79610000
   136  H          0.72380000       0.83350000       0.20390000
