data_CIRLIA
_symmetry_space_group_name_H-M    'P1'
_symmetry_Int_Tables_number       1
loop_
_symmetry_equiv_pos_site_id
_symmetry_equiv_pos_as_xyz
1 x,y,z
_cell_length_a                   11.84631
_cell_length_b                   13.189011
_cell_length_c                   17.353214
_cell_angle_alpha                90.0
_cell_angle_beta                 91.8002
_cell_angle_gamma                90.0
loop_
_atom_site_label
_atom_site_type_symbol
_atom_site_fract_x
_atom_site_fract_y
_atom_site_fract_z
     1  S          0.58111100       0.18644800       0.09370600
     2  S          0.41888900       0.68644800       0.40629400
     3  S          0.41888900       0.81355200       0.90629400
     4  S          0.58111100       0.31355200       0.59370600
     5  Cl         0.91216140       0.29022180       0.80104110
     6  Cl         0.08783860       0.79022180       0.69895890
     7  Cl         0.08783860       0.70977820       0.19895890
     8  Cl         0.91216140       0.20977820       0.30104110
     9  O          0.47453000       0.13663000       0.10644180
    10  O          0.52547000       0.63663000       0.39355820
    11  O          0.52547000       0.86337000       0.89355820
    12  O          0.47453000       0.36337000       0.60644180
    13  N          0.50583000       0.26183000       0.89172000
    14  N          0.49417000       0.76183000       0.60828000
    15  N          0.49417000       0.73817000       0.10828000
    16  N          0.50583000       0.23817000       0.39172000
    17  N          0.58323000       0.24043000       0.01202000
    18  N          0.41677000       0.74043000       0.48798000
    19  N          0.41677000       0.75957000       0.98798000
    20  N          0.58323000       0.25957000       0.51202000
    21  O          0.62363000       0.25173000       0.15502190
    22  O          0.37637000       0.75173000       0.34497810
    23  O          0.37637000       0.74827000       0.84497810
    24  O          0.62363000       0.24827000       0.65502190
    25  N          0.44724000       0.27703000       0.76322000
    26  N          0.55276000       0.77703000       0.73678000
    27  N          0.55276000       0.72297000       0.23678000
    28  N          0.44724000       0.22297000       0.26322000
    29  H          0.51340000       0.25800000       0.75020000
    30  H          0.48660000       0.75800000       0.74980000
    31  H          0.48660000       0.74200000       0.24980000
    32  H          0.51340000       0.24200000       0.25020000
    33  H          0.39650000       0.29110000       0.72820000
    34  H          0.60350000       0.79110000       0.77180000
    35  H          0.60350000       0.70890000       0.27180000
    36  H          0.39650000       0.20890000       0.22820000
    37  C          0.42334000       0.28474000       0.83703000
    38  C          0.57666000       0.78474000       0.66297000
    39  C          0.57666000       0.71526000       0.16297000
    40  C          0.42334000       0.21526000       0.33703000
    41  C          0.49424000       0.27273000       0.97123000
    42  C          0.50576000       0.77273000       0.52877000
    43  C          0.50576000       0.72727000       0.02877000
    44  C          0.49424000       0.22727000       0.47123000
    45  C          0.31934000       0.31754000       0.86283000
    46  C          0.68066000       0.81754000       0.63717000
    47  C          0.68066000       0.68246000       0.13717000
    48  C          0.31934000       0.18246000       0.36283000
    49  C          0.30794000       0.33524000       0.94123000
    50  C          0.69206000       0.83524000       0.55877000
    51  C          0.69206000       0.66476000       0.05877000
    52  C          0.30794000       0.16476000       0.44123000
    53  H          0.23910000       0.35980000       0.95760000
    54  H          0.76090000       0.85980000       0.54240000
    55  H          0.76090000       0.64020000       0.04240000
    56  H          0.23910000       0.14020000       0.45760000
    57  C          0.39224000       0.31864000      -0.00407000
    58  C          0.60776000       0.81864000       0.50407000
    59  C          0.60776000       0.68136000       0.00407000
    60  C          0.39224000       0.18136000       0.49593000
    61  C          0.66464000       0.01244000       0.03143000
    62  C          0.33536000       0.51244000       0.46857000
    63  C          0.33536000       0.98756000       0.96857000
    64  C          0.66464000       0.48756000       0.53143000
    65  H          0.59570000       0.00820000       0.00430000
    66  H          0.40430000       0.50820000       0.49570000
    67  H          0.40430000      -0.00820000      -0.00430000
    68  H          0.59570000       0.49180000       0.50430000
    69  C          0.68534000       0.09203000       0.08273000
    70  C          0.31466000       0.59203000       0.41727000
    71  C          0.31466000       0.90797000       0.91727000
    72  C          0.68534000       0.40797000       0.58273000
    73  C          0.37884000       0.35814000       0.07513000
    74  C          0.62116000       0.85814000       0.42487000
    75  C          0.62116000       0.64186000       0.92487000
    76  C          0.37884000       0.14186000       0.57513000
    77  C          0.78684000       0.09684000       0.12373000
    78  C          0.21316000       0.59684000       0.37627000
    79  C          0.21316000       0.90316000       0.87627000
    80  C          0.78684000       0.40316000       0.62373000
    81  H          0.80090000       0.14950000       0.15830000
    82  H          0.19910000       0.64950000       0.34170000
    83  H          0.19910000       0.85050000       0.84170000
    84  H          0.80090000       0.35050000       0.65830000
    85  C          0.27915000       0.34115000       0.11393000
    86  C          0.72085000       0.84115000       0.38607000
    87  C          0.72085000       0.65885000       0.88607000
    88  C          0.27915000       0.15885000       0.61393000
    89  H          0.22500000       0.29740000       0.09250000
    90  H          0.77500000       0.79740000       0.40750000
    91  H          0.77500000       0.70260000       0.90750000
    92  H          0.22500000       0.20260000       0.59250000
    93  C          0.74695000       0.93936000       0.02083000
    94  C          0.25305000       0.43936000       0.47917000
    95  C          0.25305000       0.06064000       0.97917000
    96  C          0.74695000       0.56064000       0.52083000
    97  H          0.73320000       0.88640000       0.98640000
    98  H          0.26680000       0.38640000       0.51360000
    99  H          0.26680000       0.11360000       0.01360000
   100  H          0.73320000       0.61360000       0.48640000
   101  C          0.60894000       0.21344000       0.86473000
   102  C          0.39106000       0.71344000       0.63527000
   103  C          0.39106000       0.78656000       0.13527000
   104  C          0.60894000       0.28656000       0.36473000
   105  C          0.46125000       0.42204000       0.10873000
   106  C          0.53875000       0.92204000       0.39127000
   107  C          0.53875000       0.57796000       0.89127000
   108  C          0.46125000       0.07796000       0.60873000
   109  H          0.52850000       0.43380000       0.08400000
   110  H          0.47150000       0.93380000       0.41600000
   111  H          0.47150000       0.56620000       0.91600000
   112  H          0.52850000       0.06620000       0.58400000
   113  C          0.69974000       0.27085000       0.84943000
   114  C          0.30026000       0.77085000       0.65057000
   115  C          0.30026000       0.72915000       0.15057000
   116  C          0.69974000       0.22915000       0.34943000
   117  H          0.69990000       0.34060000       0.85670000
   118  H          0.30010000       0.84060000       0.64330000
   119  H          0.30010000       0.65940000       0.14330000
   120  H          0.69990000       0.15940000       0.35670000
   121  C          0.86655000       0.02345000       0.11313000
   122  C          0.13345000       0.52345000       0.38687000
   123  C          0.13345000       0.97655000       0.88687000
   124  C          0.86655000       0.47655000       0.61313000
   125  H          0.93410000       0.02630000       0.14170000
   126  H          0.06590000       0.52630000       0.35830000
   127  H          0.06590000       0.97370000       0.85830000
   128  H          0.93410000       0.47370000       0.64170000
   129  N          0.16594000       0.35605000       0.75893000
   130  N          0.83406000       0.85605000       0.74107000
   131  N          0.83406000       0.64395000       0.24107000
   132  N          0.16594000       0.14395000       0.25893000
   133  C          0.79615000       0.21796000       0.82093000
   134  C          0.20385000       0.71796000       0.67907000
   135  C          0.20385000       0.78204000       0.17907000
   136  C          0.79615000       0.28204000       0.32093000
   137  C          0.23155000       0.33955000       0.80713000
   138  C          0.76845000       0.83955000       0.69287000
   139  C          0.76845000       0.66045000       0.19287000
   140  C          0.23155000       0.16045000       0.30713000
   141  C          0.60645000       0.10815000       0.85413000
   142  C          0.39355000       0.60815000       0.64587000
   143  C          0.39355000       0.89185000       0.14587000
   144  C          0.60645000       0.39185000       0.35413000
   145  H          0.54190000       0.07110000       0.86460000
   146  H          0.45810000       0.57110000       0.63540000
   147  H          0.45810000       0.92890000       0.13540000
   148  H          0.54190000       0.42890000       0.36460000
   149  C          0.34087000       0.45185000       0.21534000
   150  C          0.65913000       0.95185000       0.28466000
   151  C          0.65913000       0.54815000       0.78466000
   152  C          0.34087000       0.04815000       0.71534000
   153  H          0.32750000       0.48450000       0.26160000
   154  H          0.67250000       0.98450000       0.23840000
   155  H          0.67250000       0.51550000       0.73840000
   156  H          0.32750000       0.01550000       0.76160000
   157  C          0.44167000       0.46784000       0.17924000
   158  C          0.55833000       0.96784000       0.32076000
   159  C          0.55833000       0.53216000       0.82076000
   160  C          0.44167000       0.03216000       0.67924000
   161  H          0.49650000       0.50930000       0.20220000
   162  H          0.50350000       0.00930000       0.29780000
   163  H          0.50350000       0.49070000       0.79780000
   164  H          0.49650000      -0.00930000       0.70220000
   165  C          0.84955000       0.94496000       0.06134000
   166  C          0.15045000       0.44496000       0.43866000
   167  C          0.15045000       0.05504000       0.93866000
   168  C          0.84955000       0.55504000       0.56134000
   169  C          0.70187000       0.06036000       0.82754000
   170  C          0.29813000       0.56036000       0.67246000
   171  C          0.29813000       0.93964000       0.17246000
   172  C          0.70187000       0.43964000       0.32754000
   173  H          0.70310000      -0.00960000       0.82060000
   174  H          0.29690000       0.49040000       0.67940000
   175  H          0.29690000       0.00960000       0.17940000
   176  H          0.70310000       0.50960000       0.32060000
   177  C          0.25916000       0.38766000       0.18334000
   178  C          0.74084000       0.88766000       0.31666000
   179  C          0.74084000       0.61234000       0.81666000
   180  C          0.25916000       0.11234000       0.68334000
   181  H          0.19190000       0.37620000       0.20830000
   182  H          0.80810000       0.87620000       0.29170000
   183  H          0.80810000       0.62380000       0.79170000
   184  H          0.19190000       0.12380000       0.70830000
   185  C          0.93996000       0.86504000       0.04745000
   186  C          0.06004000       0.36504000       0.45255000
   187  C          0.06004000       0.13496000       0.95255000
   188  C          0.93996000       0.63496000       0.54745000
   189  H          0.01330000       0.89540000       0.05360000
   190  H          0.98670000       0.39540000       0.44640000
   191  H          0.98670000       0.10460000       0.94640000
   192  H          0.01330000       0.60460000       0.55360000
   193  H          0.93040000       0.83880000      -0.00400000
   194  H          0.06960000       0.33880000       0.50400000
   195  H          0.06960000       0.16120000       0.00400000
   196  H          0.93040000       0.66120000       0.49600000
   197  H          0.93280000       0.81100000       0.08390000
   198  H          0.06720000       0.31100000       0.41610000
   199  H          0.06720000       0.18900000       0.91610000
   200  H          0.93280000       0.68900000       0.58390000
   201  C          0.79186000       0.11675000       0.81224000
   202  C          0.20814000       0.61675000       0.68776000
   203  C          0.20814000       0.88325000       0.18776000
   204  C          0.79186000       0.38325000       0.31224000
   205  H          0.85550000       0.08400000       0.79450000
   206  H          0.14450000       0.58400000       0.70550000
   207  H          0.14450000       0.91600000       0.20550000
   208  H          0.85550000       0.41600000       0.29450000
   209  O          0.87564000       0.50134000       0.06143000
   210  O          0.12436000       0.00134000       0.43857000
   211  O          0.12436000       0.49866000       0.93857000
   212  O          0.87564000      -0.00134000       0.56143000
   213  C          0.95856000       0.45366000       0.11024000
   214  C          0.04144000       0.95366000       0.38976000
   215  C          0.04144000       0.54634000       0.88976000
   216  C          0.95856000       0.04634000       0.61024000
   217  H          0.94660000       0.47020000       0.16380000
   218  H          0.05340000       0.97020000       0.33620000
   219  H          0.05340000       0.52980000       0.83620000
   220  H          0.94660000       0.02980000       0.66380000
   221  H          0.03380000       0.47530000       0.09700000
   222  H          0.96620000       0.97530000       0.40300000
   223  H          0.96620000       0.52470000       0.90300000
   224  H          0.03380000       0.02470000       0.59700000
   225  C          0.81337000       0.42756000       0.01976000
   226  C          0.18663000       0.92756000       0.48024000
   227  C          0.18663000       0.57244000       0.98024000
   228  C          0.81337000       0.07244000       0.51976000
   229  H          0.80230000       0.44850000       0.96640000
   230  H          0.19770000       0.94850000       0.53360000
   231  H          0.19770000       0.55150000       0.03360000
   232  H          0.80230000       0.05150000       0.46640000
   233  H          0.73980000       0.41850000       0.04190000
   234  H          0.26020000       0.91850000       0.45810000
   235  H          0.26020000       0.58150000       0.95810000
   236  H          0.73980000       0.08150000       0.54190000
   237  C          0.87736000       0.33265000       0.02405000
   238  C          0.12264000       0.83265000       0.47595000
   239  C          0.12264000       0.66735000       0.97595000
   240  C          0.87736000       0.16735000       0.52405000
   241  H          0.92570000       0.32550000       0.98030000
   242  H          0.07430000       0.82550000       0.51970000
   243  H          0.07430000       0.67450000       0.01970000
   244  H          0.92570000       0.17450000       0.48030000
   245  H          0.82730000       0.27450000       0.02590000
   246  H          0.17270000       0.77450000       0.47410000
   247  H          0.17270000       0.72550000       0.97410000
   248  H          0.82730000       0.22550000       0.52590000
   249  C          0.94459000       0.34366000       0.09686000
   250  C          0.05541000       0.84366000       0.40314000
   251  C          0.05541000       0.65634000       0.90314000
   252  C          0.94459000       0.15634000       0.59686000
   253  H          0.90550000       0.31260000       0.13910000
   254  H          0.09450000       0.81260000       0.36090000
   255  H          0.09450000       0.68740000       0.86090000
   256  H          0.90550000       0.18740000       0.63910000
   257  H          0.01760000       0.31120000       0.09250000
   258  H          0.98240000       0.81120000       0.40750000
   259  H          0.98240000       0.68880000       0.90750000
   260  H          0.01760000       0.18880000       0.59250000
