data_CIRNIC
_symmetry_space_group_name_H-M    'P1'
_symmetry_Int_Tables_number       1
loop_
_symmetry_equiv_pos_site_id
_symmetry_equiv_pos_as_xyz
1 x,y,z
_cell_length_a                   6.68653
_cell_length_b                   7.21664
_cell_length_c                   10.58035
_cell_angle_alpha                85.2533
_cell_angle_beta                 86.5773
_cell_angle_gamma                83.7733
loop_
_atom_site_label
_atom_site_type_symbol
_atom_site_fract_x
_atom_site_fract_y
_atom_site_fract_z
     1  N          0.53915870       0.35682120       0.18843800
     2  N          0.46084130       0.64317880       0.81156200
     3  O          0.36803880       0.43359120       0.14642800
     4  O          0.63196120       0.56640880       0.85357200
     5  C          0.68335840       0.28120150       0.10643100
     6  C          0.31664160       0.71879850       0.89356900
     7  H          0.66090000       0.28450000       0.01840000
     8  H          0.33910000       0.71550000       0.98160000
     9  C          0.86351840       0.19929150       0.15313100
    10  C          0.13648160       0.80070850       0.84686900
    11  H          0.96320000       0.14630000       0.09510000
    12  H          0.03680000       0.85370000       0.90490000
    13  N          0.90472870       0.19077130       0.27596800
    14  N          0.09527130       0.80922870       0.72403200
    15  C          0.75920850       0.26645150       0.35462100
    16  C          0.24079150       0.73354850       0.64537900
    17  H          0.78320000       0.26260000       0.44240000
    18  H          0.21680000       0.73740000       0.55760000
    19  C          0.57618850       0.34970150       0.31380900
    20  C          0.42381150       0.65029850       0.68619100
    21  H          0.47710000       0.40150000       0.37270000
    22  H          0.52290000       0.59850000       0.62730000
    23  C          0.56918140       0.84323130       0.25971900
    24  C          0.43081860       0.15676870       0.74028100
    25  C          0.36567150       0.93788140       0.23366900
    26  C          0.63432850       0.06211860       0.76633100
    27  O          0.27121120       0.01343120       0.33479700
    28  O          0.72878880      -0.01343120       0.66520300
    29  H          0.14020000       0.07320000       0.31251400
    30  H          0.85980000       0.92680000       0.68748600
    31  O          0.29264120       0.94888120       0.13034700
    32  O          0.70735880       0.05111880       0.86965300
    33  C          0.69597150       0.77732140       0.15897900
    34  C          0.30402850       0.22267860       0.84102100
    35  H          0.65050000       0.79230000       0.07500000
    36  H          0.34950000       0.20770000       0.92500000
    37  C          0.88764150       0.69019140       0.18145900
    38  C          0.11235850       0.30980860       0.81854100
    39  H          0.97320000       0.64660000       0.11280000
    40  H          0.02680000       0.35340000       0.88720000
    41  C          0.95463150       0.66672140       0.30495100
    42  C          0.04536850       0.33327860       0.69504900
    43  O          0.13935120       0.58220120       0.33233800
    44  O          0.86064880       0.41779880       0.66766200
    45  H          0.20220000       0.54020000       0.26151400
    46  H          0.79780000       0.45980000       0.73848600
    47  C          0.82876150       0.73177150       0.40594900
    48  C          0.17123850       0.26822850       0.59405100
    49  H          0.87370000       0.71590000       0.49000000
    50  H          0.12630000       0.28410000       0.51000000
    51  C          0.63845150       0.81935140       0.38251900
    52  C          0.36154850       0.18064860       0.61748100
    53  H          0.55360000       0.86390000       0.45110000
    54  H          0.44640000       0.13610000       0.54890000
