data_CIRTEC01
_symmetry_space_group_name_H-M    'P1'
_symmetry_Int_Tables_number       1
loop_
_symmetry_equiv_pos_site_id
_symmetry_equiv_pos_as_xyz
1 x,y,z
_cell_length_a                   8.51912
_cell_length_b                   24.90114
_cell_length_c                   9.5926
_cell_angle_alpha                90.0
_cell_angle_beta                 113.469
_cell_angle_gamma                90.0
loop_
_atom_site_label
_atom_site_type_symbol
_atom_site_fract_x
_atom_site_fract_y
_atom_site_fract_z
     1  C          0.84487000       0.00947800       0.30572000
     2  C          0.65513000       0.50947800       0.69428000
     3  C          0.15513000       0.99052200       0.69428000
     4  C          0.34487000       0.49052200       0.30572000
     5  C          0.93907000       0.06104800       0.31372000
     6  C          0.56093000       0.56104800       0.68628000
     7  C          0.06093000       0.93895200       0.68628000
     8  C          0.43907000       0.43895200       0.31372000
     9  O          0.07802000       0.05096600       0.26932000
    10  O          0.42198000       0.55096600       0.73068000
    11  O          0.92198000       0.94903400       0.73068000
    12  O          0.57802000       0.44903400       0.26932000
    13  C          0.18533000       0.09699900       0.29232000
    14  C          0.31467000       0.59699900       0.70768000
    15  C          0.81467000       0.90300100       0.70768000
    16  C          0.68533000       0.40300100       0.29232000
    17  C          0.32943000       0.08425900       0.24502000
    18  C          0.17057000       0.58425900       0.75498000
    19  C          0.67057000       0.91574100       0.75498000
    20  C          0.82943000       0.41574100       0.24502000
    21  O          0.26342000       0.07822600       0.08402000
    22  O          0.23658000       0.57822600       0.91598000
    23  O          0.73658000       0.92177400       0.91598000
    24  O          0.76342000       0.42177400       0.08402000
    25  C          0.39882000       0.06958800       0.03313000
    26  C          0.10118000       0.56958800       0.96687000
    27  C          0.60118000       0.93041200       0.96687000
    28  C          0.89882000       0.43041200       0.03313000
    29  C          0.32213000       0.05603900       0.86718000
    30  C          0.17787000       0.55603900       0.13282000
    31  C          0.67787000       0.94396100       0.13282000
    32  C          0.82213000       0.44396100       0.86718000
    33  O          0.75828000      -0.00514500       0.15001000
    34  O          0.74172000       0.49485500       0.84999000
    35  O          0.24172000       0.00514500       0.84999000
    36  O          0.25828000       0.50514500       0.15001000
    37  H          0.76400000       0.01400000       0.35000000
    38  H          0.73600000       0.51400000       0.65000000
    39  H          0.23600000       0.98600000       0.65000000
    40  H          0.26400000       0.48600000       0.35000000
    41  H          0.92400000       0.98200000       0.35900000
    42  H          0.57600000       0.48200000       0.64100000
    43  H          0.07600000       0.01800000       0.64100000
    44  H          0.42400000       0.51800000       0.35900000
    45  H          0.86300000       0.08700000       0.24700000
    46  H          0.63700000       0.58700000       0.75300000
    47  H          0.13700000       0.91300000       0.75300000
    48  H          0.36300000       0.41300000       0.24700000
    49  H         -0.01800000       0.07500000       0.41500000
    50  H          0.51800000       0.57500000       0.58500000
    51  H          0.01800000       0.92500000       0.58500000
    52  H          0.48200000       0.42500000       0.41500000
    53  H          0.12000000       0.12600000       0.23200000
    54  H          0.38000000       0.62600000       0.76800000
    55  H          0.88000000       0.87400000       0.76800000
    56  H          0.62000000       0.37400000       0.23200000
    57  H          0.23000000       0.10700000       0.39700000
    58  H          0.27000000       0.60700000       0.60300000
    59  H          0.77000000       0.89300000       0.60300000
    60  H          0.73000000       0.39300000       0.39700000
    61  H          0.41100000       0.11200000       0.27600000
    62  H          0.08900000       0.61200000       0.72400000
    63  H          0.58900000       0.88800000       0.72400000
    64  H          0.91100000       0.38800000       0.27600000
    65  H          0.38300000       0.05200000       0.29200000
    66  H          0.11700000       0.55200000       0.70800000
    67  H          0.61700000       0.94800000       0.70800000
    68  H          0.88300000       0.44800000       0.29200000
    69  H          0.46600000       0.10100000       0.04900000
    70  H          0.03400000       0.60100000       0.95100000
    71  H          0.53400000       0.89900000       0.95100000
    72  H          0.96600000       0.39900000       0.04900000
    73  H          0.46900000       0.04100000       0.08800000
    74  H          0.03100000       0.54100000       0.91200000
    75  H          0.53100000       0.95900000       0.91200000
    76  H          0.96900000       0.45900000       0.08800000
    77  H          0.23900000       0.08200000       0.81300000
    78  H          0.26100000       0.58200000       0.18700000
    79  H          0.76100000       0.91800000       0.18700000
    80  H          0.73900000       0.41800000       0.81300000
    81  H          0.40900000       0.05500000       0.82900000
    82  H          0.09100000       0.55500000       0.17100000
    83  H          0.59100000       0.94500000       0.17100000
    84  H          0.90900000       0.44500000       0.82900000
    85  O          0.26192000       0.89058500       0.05431000
    86  O          0.23808000       0.39058500       0.94569000
    87  O          0.73808000       0.10941500       0.94569000
    88  O          0.76192000       0.60941500       0.05431000
    89  C          0.27962000       0.84677300       0.13712000
    90  C          0.22038000       0.34677300       0.86288000
    91  C          0.72038000       0.15322700       0.86288000
    92  C          0.77962000       0.65322700       0.13712000
    93  C          0.29802000       0.84500300       0.29012000
    94  C          0.20198000       0.34500300       0.70988000
    95  C          0.70198000       0.15499700       0.70988000
    96  C          0.79802000       0.65499700       0.29012000
    97  C          0.31132000       0.79651200       0.36682000
    98  C          0.18868000       0.29651200       0.63318000
    99  C          0.68868000       0.20348800       0.63318000
   100  C          0.81132000       0.70348800       0.36682000
   101  C          0.30942000       0.74887300       0.29122000
   102  C          0.19058000       0.24887300       0.70878000
   103  C          0.69058000       0.25112700       0.70878000
   104  C          0.80942000       0.75112700       0.29122000
   105  C          0.30262000       0.74858300       0.14352000
   106  C          0.19738000       0.24858300       0.85648000
   107  C          0.69738000       0.25141700       0.85648000
   108  C          0.80262000       0.75141700       0.14352000
   109  C          0.28372000       0.79714300       0.06922000
   110  C          0.21628000       0.29714300       0.93078000
   111  C          0.71628000       0.20285700       0.93078000
   112  C          0.78372000       0.70285700       0.06922000
   113  N          0.31762000       0.89608300       0.37282000
   114  N          0.18238000       0.39608300       0.62718000
   115  N          0.68238000       0.10391700       0.62718000
   116  N          0.81762000       0.60391700       0.37282000
   117  O          0.22742000       0.90392400       0.44282000
   118  O          0.27258000       0.40392400       0.55718000
   119  O          0.77258000       0.09607600       0.55718000
   120  O          0.72742000       0.59607600       0.44282000
   121  O          0.42652000       0.92722400       0.36702000
   122  O          0.07348000       0.42722400       0.63298000
   123  O          0.57348000       0.07277600       0.63298000
   124  O          0.92652000       0.57277600       0.36702000
   125  Cl         0.34442600       0.79393800       0.55540500
   126  Cl         0.15557400       0.29393800       0.44459500
   127  Cl         0.65557400       0.20606200       0.44459500
   128  Cl         0.84442600       0.70606200       0.55540500
   129  N          0.31442000       0.69717400       0.36752000
   130  N          0.18558000       0.19717400       0.63248000
   131  N          0.68558000       0.30282600       0.63248000
   132  N          0.81442000       0.80282600       0.36752000
   133  O          0.18202000       0.68290300       0.37622000
   134  O          0.31798000       0.18290300       0.62378000
   135  O          0.81798000       0.31709700       0.62378000
   136  O          0.68202000       0.81709700       0.37622000
   137  O          0.44682000       0.67189300       0.41262000
   138  O          0.05318000       0.17189300       0.58738000
   139  O          0.55318000       0.32810700       0.58738000
   140  O          0.94682000       0.82810700       0.41262000
   141  Cl         0.31276600       0.68960800       0.05440500
   142  Cl         0.18723400       0.18960800       0.94559500
   143  Cl         0.68723400       0.31039200       0.94559500
   144  Cl         0.81276600       0.81039200       0.05440500
   145  N          0.26662000       0.79796400       0.91038000
   146  N          0.23338000       0.29796400       0.08962000
   147  N          0.73338000       0.20203600       0.08962000
   148  N          0.76662000       0.70203600       0.91038000
   149  O          0.39902000       0.79836200       0.88928000
   150  O          0.10098000       0.29836200       0.11072000
   151  O          0.60098000       0.20163800       0.11072000
   152  O          0.89902000       0.70163800       0.88928000
   153  O          0.12292000       0.79839300       0.81118000
   154  O          0.37708000       0.29839300       0.18882000
   155  O          0.87708000       0.20160700       0.18882000
   156  O          0.62292000       0.70160700       0.81118000
   157  H          0.22330000       0.91190000       0.08130000
   158  H          0.27670000       0.41190000       0.91870000
   159  H          0.77670000       0.08810000       0.91870000
   160  H          0.72330000       0.58810000       0.08130000
   161  O          0.07172000       0.95301400       0.11892000
   162  O          0.42828000       0.45301400       0.88108000
   163  O          0.92828000       0.04698600       0.88108000
   164  O          0.57172000       0.54698600       0.11892000
   165  H          0.08930000       0.98390000       0.15730000
   166  H          0.41070000       0.48390000       0.84270000
   167  H          0.91070000       0.01610000       0.84270000
   168  H          0.58930000       0.51610000       0.15730000
   169  H         -0.01940000       0.95190000       0.05530000
   170  H          0.51940000       0.45190000       0.94470000
   171  H          0.01940000       0.04810000       0.94470000
   172  H          0.48060000       0.54810000       0.05530000
