data_CIRWAC
_symmetry_space_group_name_H-M    'P1'
_symmetry_Int_Tables_number       1
loop_
_symmetry_equiv_pos_site_id
_symmetry_equiv_pos_as_xyz
1 x,y,z
_cell_length_a                   12.39753
_cell_length_b                   13.74843
_cell_length_c                   12.94253
_cell_angle_alpha                90.0
_cell_angle_beta                 113.32301
_cell_angle_gamma                90.0
loop_
_atom_site_label
_atom_site_type_symbol
_atom_site_fract_x
_atom_site_fract_y
_atom_site_fract_z
     1  N          0.43873000       0.96222000       0.66433000
     2  N          0.43873000       0.03778000       0.16433000
     3  N          0.24943000       0.90572000       0.61783000
     4  N          0.24943000       0.09428000       0.11783000
     5  O          0.28223000       0.06572000       0.60153000
     6  O          0.28223000       0.93428000       0.10153000
     7  C          0.28824000       0.81282000       0.64223000
     8  C          0.28824000       0.18718000       0.14223000
     9  C          0.48094000       0.86913000       0.69194000
    10  C          0.48094000       0.13087000       0.19194000
    11  H          0.56134000       0.85793000       0.71754000
    12  H          0.56134000       0.14207000       0.21754000
    13  N          0.21013000       0.74603000       0.63093000
    14  N          0.21013000       0.25397000       0.13093000
    15  H          0.13713000       0.76163000       0.60873000
    16  H          0.13713000       0.23837000       0.10873000
    17  H          0.23133000       0.68633000       0.64553000
    18  H          0.23133000       0.31367000       0.14553000
    19  C          0.32204000       0.98423000       0.62684000
    20  C          0.32204000       0.01577000       0.12684000
    21  C          0.40964000       0.79573000       0.68274000
    22  C          0.40964000       0.20427000       0.18274000
    23  H          0.43934000       0.73333000       0.70274000
    24  H          0.43934000       0.26667000       0.20274000
    25  H          0.17934600       0.91523600       0.59644300
    26  H          0.17934600       0.08476400       0.09644300
    27  H          0.49313700       0.01962500       0.67634600
    28  H          0.49313700       0.98037500       0.17634600
    29  O          0.96128000       0.77242000       0.55302000
    30  O          0.96128000       0.22758000       0.05302000
    31  O          0.44618000       0.69622000       0.44753000
    32  O          0.44618000       0.30378000       0.94753000
    33  O          0.35068000       0.85092000       0.40233000
    34  O          0.35068000       0.14908000       0.90233000
    35  C          0.62537000       0.97712000       0.46103000
    36  C          0.62537000       0.02288000       0.96103000
    37  H          0.58927000       0.03782000       0.44783000
    38  H          0.58927000       0.96218000       0.94783000
    39  C          0.55397000       0.89612000       0.44923000
    40  C          0.55397000       0.10388000       0.94923000
    41  C          0.73007000       0.80182000       0.49953000
    42  C          0.73007000       0.19818000      -0.00047000
    43  H          0.76577000       0.74102000       0.51133000
    44  H          0.76577000       0.25898000       0.01133000
    45  O          0.91308000       0.08252000       0.53163000
    46  O          0.91308000       0.91748000       0.03163000
    47  O          0.00302000       0.92672000       0.55113000
    48  O          0.00302000       0.07328000       0.05113000
    49  C          0.92857000       0.85782000       0.53923000
    50  C          0.92857000       0.14218000       0.03923000
    51  C          0.74597000       0.97462000       0.49083000
    52  C          0.74597000       0.02538000      -0.00917000
    53  O          0.39058000       0.00382000       0.39033000
    54  O          0.39058000      -0.00382000       0.89033000
    55  C          0.80107000       0.88282000       0.50953000
    56  C          0.80107000       0.11718000       0.00953000
    57  C          0.42457000       0.91993000       0.41123000
    58  C          0.42457000       0.08007000       0.91123000
    59  O          0.62258000       0.63292000       0.49492000
    60  O          0.62258000       0.36708000      -0.00508000
    61  O          0.73967000       0.14662000       0.48673000
    62  O          0.73967000       0.85338000       0.98673000
    63  C          0.60957000       0.80492000       0.47333000
    64  C          0.60957000       0.19508000       0.97333000
    65  C          0.55517000       0.70453000       0.47233000
    66  C          0.55517000       0.29547000       0.97233000
    67  C          0.79967000       0.07463000       0.50313000
    68  C          0.79967000       0.92537000       0.00313000
    69  H          0.38416900       0.78992600       0.41632900
    70  H          0.38416900       0.21007400       0.91632900
    71  H          0.96535600      -0.00658300       0.54284800
    72  H          0.96535600       0.00658300       0.04284800
    73  C          0.38874000       0.66743000       0.94374000
    74  C          0.38874000       0.33257000       0.44374000
    75  H          0.31094000       0.68483000       0.92604000
    76  H          0.31094000       0.31517000       0.42604000
    77  N          0.53703000       0.54792000       0.98013000
    78  N          0.53703000       0.45208000       0.48013000
    79  O          0.72372000       0.59192000       0.01582000
    80  O          0.72372000       0.40808000       0.51582000
    81  C          0.42223000       0.56873000       0.95363000
    82  C          0.42223000       0.43127000       0.45363000
    83  N          0.58513000       0.71012000       0.98473000
    84  N          0.58513000       0.28988000       0.48473000
    85  C          0.62144000       0.61583000      -0.00567000
    86  C          0.62144000       0.38417000       0.49433000
    87  N          0.34973000       0.49682000       0.94183000
    88  N          0.34973000       0.50318000       0.44183000
    89  H          0.37513000       0.43792000       0.95093000
    90  H          0.37513000       0.56208000       0.45093000
    91  H          0.27653000       0.50832000       0.92503000
    92  H          0.27653000       0.49168000       0.42503000
    93  C          0.47113000       0.73553000       0.96033000
    94  C          0.47113000       0.26447000       0.46033000
    95  H          0.45053000       0.80093000       0.95523000
    96  H          0.45053000       0.19907000       0.45523000
    97  H          0.57033500       0.49742900      -0.00636700
    98  H          0.57033500       0.50257100       0.49363300
    99  H          0.62973500       0.75943000       0.98623200
   100  H          0.62973500       0.24057000       0.48623200
   101  N          0.14153000       0.97342000       0.33463000
   102  N          0.14153000       0.02658000       0.83463000
   103  H          0.11783000       0.91402000       0.32733000
   104  H          0.11783000       0.08598000       0.82733000
   105  H          0.21443000       0.98612000       0.35093000
   106  H          0.21443000       0.01388000       0.85093000
   107  N          0.95287000       0.02202000       0.29553000
   108  N          0.95287000       0.97798000       0.79553000
   109  C          0.86506000       0.09003000       0.27923000
   110  C          0.86506000       0.90997000       0.77923000
   111  C          0.01583000       0.20963000       0.31903000
   112  C          0.01583000       0.79037000       0.81903000
   113  H          0.03653000       0.27503000       0.32803000
   114  H          0.03653000       0.72497000       0.82803000
   115  N          0.90137000       0.18472000       0.29123000
   116  N          0.90137000       0.81528000       0.79123000
   117  C          0.06713000       0.04413000       0.32113000
   118  C          0.06713000       0.95587000       0.82113000
   119  O          0.76418000       0.06472000       0.25643000
   120  O          0.76418000       0.93528000       0.75643000
   121  C          0.09874000       0.14373000       0.33353000
   122  C          0.09874000       0.85627000       0.83353000
   123  H          0.17604000       0.16263000       0.35163000
   124  H          0.17604000       0.83737000       0.85163000
   125  H          0.94206700       0.94872900       0.29863100
   126  H          0.94206700       0.05127100       0.79863100
   127  H          0.83816700       0.22722700       0.27763000
   128  H          0.83816700       0.77277300       0.77763000
   129  O          0.04942000       0.77862000       0.33543000
   130  O          0.04942000       0.22138000       0.83543000
   131  C          0.93987000       0.57792000       0.32693000
   132  C          0.93987000       0.42208000       0.82693000
   133  O          0.53488000       0.70502000       0.22692000
   134  O          0.53488000       0.29498000       0.72692000
   135  C          0.86697000       0.49672000       0.31193000
   136  C          0.86697000       0.50328000       0.81193000
   137  H          0.90187000       0.43562000       0.32273000
   138  H          0.90187000       0.56438000       0.82273000
   139  C          0.69387000       0.59322000       0.26883000
   140  C          0.69387000       0.40678000       0.76883000
   141  O          0.10142000       0.46902000       0.38262000
   142  O          0.10142000       0.53098000       0.88262000
   143  O          0.49338000       0.55032000       0.23393000
   144  O          0.49338000       0.44968000       0.73393000
   145  C          0.88497000       0.67092000       0.30743000
   146  C          0.88497000       0.32908000       0.80743000
   147  C          0.76567000       0.67292000       0.28083000
   148  C          0.76567000       0.32708000       0.78083000
   149  H          0.73017000       0.73382000       0.27003000
   150  H          0.73017000       0.26618000       0.77003000
   151  O          0.74737000       0.32792000       0.27693000
   152  O          0.74737000       0.67208000       0.77693000
   153  O          0.57728000       0.39392000       0.24313000
   154  O          0.57728000       0.60608000       0.74313000
   155  O          0.87258000       0.84082000       0.28243000
   156  O          0.87258000       0.15918000       0.78243000
   157  C          0.06793000       0.55353000       0.36313000
   158  C          0.06793000       0.44647000       0.86313000
   159  O          0.14332000       0.62312000       0.37553000
   160  O          0.14332000       0.37688000       0.87553000
   161  C          0.93757000       0.76893000       0.30903000
   162  C          0.93757000       0.23107000       0.80903000
   163  C          0.68837000       0.40013000       0.26713000
   164  C          0.68837000       0.59987000       0.76713000
   165  C          0.74707000       0.50052000       0.28233000
   166  C          0.74707000       0.49948000       0.78233000
   167  C          0.56557000       0.61942000       0.24123000
   168  C          0.56557000       0.38058000       0.74123000
   169  H          0.52804500       0.47454600       0.23595300
   170  H          0.52804500       0.52545400       0.73595300
   171  H          0.08075700       0.71584600       0.34925200
   172  H          0.08075700       0.28415400       0.84925200
   173  O          0.59323000       0.89272000       0.17633000
   174  O          0.59323000       0.10728000       0.67633000
   175  H          0.67619000       0.90503900       0.20504500
   176  H          0.67619000       0.09496100       0.70504500
   177  H          0.57605700       0.83795000       0.19605300
   178  H          0.57605700       0.16205000       0.69605300
   179  N          0.26563000       0.60862000       0.16703000
   180  N          0.26563000       0.39138000       0.66703000
   181  C          0.18104000       0.53923000       0.14934000
   182  C          0.18104000       0.46077000       0.64934000
   183  C          0.13233000       0.73793000       0.11313000
   184  C          0.13233000       0.26207000       0.61313000
   185  H          0.11663000       0.80413000       0.10233000
   186  H          0.11663000       0.19587000       0.60233000
   187  C          0.04104000       0.67083000       0.09123000
   188  C          0.04104000       0.32917000       0.59123000
   189  N          0.92987000       0.69602000       0.05323000
   190  N          0.92987000       0.30398000       0.55323000
   191  H          0.87657000       0.65232000       0.04103000
   192  H          0.87657000       0.34768000       0.54103000
   193  H          0.91027000       0.75622000       0.04063000
   194  H          0.91027000       0.24378000       0.54063000
   195  O          0.20233000       0.45382000       0.16423000
   196  O          0.20233000       0.54618000       0.66423000
   197  N          0.06723000       0.57462000       0.10983000
   198  N          0.06723000       0.42538000       0.60983000
   199  C          0.24143000       0.70523000       0.14954000
   200  C          0.24143000       0.29477000       0.64954000
   201  H          0.30273000       0.74903000       0.16344000
   202  H          0.30273000       0.25097000       0.66344000
   203  H          0.34273700       0.59132900       0.18103300
   204  H          0.34273700       0.40867100       0.68103300
   205  H          0.02202800       0.52892300       0.10982600
   206  H          0.02202800       0.47107700       0.60982600
   207  O          0.90057000       0.43082000       0.07983000
   208  O          0.90057000       0.56918000       0.57983000
   209  H          0.82775700       0.43533300       0.05833900
   210  H          0.82775700       0.56466700       0.55833900
   211  H          0.91265700       0.36283500       0.08413900
   212  H          0.91265700       0.63716500       0.58413900
