data_CITTEH
_symmetry_space_group_name_H-M    'P1'
_symmetry_Int_Tables_number       1
loop_
_symmetry_equiv_pos_site_id
_symmetry_equiv_pos_as_xyz
1 x,y,z
_cell_length_a                   7.54263
_cell_length_b                   9.14594
_cell_length_c                   12.65727
_cell_angle_alpha                92.6124
_cell_angle_beta                 100.4104
_cell_angle_gamma                100.1734
loop_
_atom_site_label
_atom_site_type_symbol
_atom_site_fract_x
_atom_site_fract_y
_atom_site_fract_z
     1  Br         0.73270500       0.48402400       0.43849200
     2  Br         0.26729500       0.51597600       0.56150800
     3  N          0.76924000       0.30813000       0.26472000
     4  N          0.23076000       0.69187000       0.73528000
     5  H          0.77834500       0.24360100       0.31397400
     6  H          0.22165500       0.75639900       0.68602600
     7  C          0.74035000       0.44364000       0.29252000
     8  C          0.25965000       0.55636000       0.70748000
     9  C          0.72005000       0.54584000       0.21683000
    10  C          0.27995000       0.45416000       0.78317000
    11  H          0.69654500       0.64145800       0.23537600
    12  H          0.30345500       0.35854200       0.76462400
    13  C          0.73505000       0.50434000       0.11243000
    14  C          0.26495000       0.49566000       0.88757000
    15  H          0.72198000       0.57343700       0.05906800
    16  H          0.27802000       0.42656300       0.94093200
    17  C          0.76845000       0.36534000       0.08363000
    18  C          0.23155000       0.63466000       0.91637000
    19  C          0.78465000       0.26724000       0.16362000
    20  C          0.21535000       0.73276000       0.83638000
    21  H          0.80681800       0.17043700       0.14702600
    22  H          0.19318200       0.82956300       0.85297400
    23  C          0.79086000       0.32004000       0.97227000
    24  C          0.20914000       0.67996000       0.02773000
    25  H          0.80302400       0.21512300       0.96783800
    26  H          0.19697600       0.78487700       0.03216200
    27  H          0.90105300       0.38202500       0.95604500
    28  H          0.09894700       0.61797500       0.04395500
    29  H          0.68308400       0.33334400       0.92002400
    30  H          0.31691600       0.66665600       0.07997600
    31  Br         0.54432500       0.93062600       0.25084200
    32  Br         0.45567500       0.06937400       0.74915800
    33  N          0.77104000       0.10193000       0.42334190
    34  N          0.22896000       0.89807000       0.57665810
    35  C          0.66395000       0.96966000       0.39792000
    36  C          0.33605000       0.03034000       0.60208000
    37  C          0.63385000       0.86306000       0.47053000
    38  C          0.36615000       0.13694000       0.52947000
    39  H          0.55539300       0.76938000       0.44824900
    40  H          0.44460700       0.23062000       0.55175100
    41  C          0.72205000       0.89866000       0.57583000
    42  C          0.27795000       0.10134000       0.42417000
    43  H          0.70582300       0.82791900       0.62758200
    44  H          0.29417700       0.17208100       0.37241800
    45  C          0.83425000       0.03644000       0.60732000
    46  C          0.16575000       0.96356000       0.39268000
    47  C          0.85565000       0.13414000       0.52762000
    48  C          0.14435000       0.86586000       0.47238000
    49  H          0.93384400       0.22840600       0.54740800
    50  H          0.06615600       0.77159400       0.45259200
    51  C          0.93176000       0.08194000       0.72262000
    52  C          0.06824000       0.91806000       0.27738000
    53  H          0.92160800       0.18467700       0.74187700
    54  H          0.07839200       0.81532300       0.25812300
    55  H          0.06150400       0.07500800       0.72979100
    56  H          0.93849600       0.92499200       0.27020900
    57  H          0.87518900       0.01537700       0.77083400
    58  H          0.12481100      -0.01537700       0.22916600
    59  Br         0.70240600       0.88377400      -0.01062700
    60  Br         0.29759400       0.11622600       0.01062700
    61  Br         0.73538500       0.69824400       0.84579200
    62  Br         0.26461500       0.30175600       0.15420800
    63  Br         0.76668600       0.49852400       0.70147300
    64  Br         0.23331400       0.50147600       0.29852700
