data_CITVAF
_symmetry_space_group_name_H-M    'P1'
_symmetry_Int_Tables_number       1
loop_
_symmetry_equiv_pos_site_id
_symmetry_equiv_pos_as_xyz
1 x,y,z
_cell_length_a                   7.50063
_cell_length_b                   11.44384
_cell_length_c                   16.32128
_cell_angle_alpha                90.0
_cell_angle_beta                 101.8994
_cell_angle_gamma                90.0
loop_
_atom_site_label
_atom_site_type_symbol
_atom_site_fract_x
_atom_site_fract_y
_atom_site_fract_z
     1  Br         0.94144700       0.90581500       0.50508300
     2  Br         0.55855300       0.40581500      -0.00508300
     3  Br         0.05855300       0.09418500       0.49491700
     4  Br         0.44144700       0.59418500       0.00508300
     5  Br         0.81393700       0.65541500       0.53940300
     6  Br         0.68606300       0.15541500       0.96059700
     7  Br         0.18606300       0.34458500       0.46059700
     8  Br         0.31393700       0.84458500       0.03940300
     9  Br         0.89223600       0.72048400       0.69224300
    10  Br         0.60776400       0.22048400       0.80775700
    11  Br         0.10776400       0.27951600       0.30775700
    12  Br         0.39223600       0.77951600       0.19224300
    13  Br         0.97181700       0.77569500       0.84604300
    14  Br         0.52818300       0.27569500       0.65395700
    15  Br         0.02818300       0.22430500       0.15395700
    16  Br         0.47181700       0.72430500       0.34604300
    17  N          0.40545000       0.73563000       0.70133000
    18  N          0.09455000       0.23563000       0.79867000
    19  N          0.59455000       0.26437000       0.29867000
    20  N          0.90545000       0.76437000       0.20133000
    21  C          0.47197000       0.84585000       0.83533000
    22  C          0.02803000       0.34585000       0.66467000
    23  C          0.52803000       0.15415000       0.16467000
    24  C          0.97197000       0.65415000       0.33533000
    25  H          0.51838700       0.92304100       0.85499900
    26  H         -0.01838700       0.42304100       0.64500100
    27  H          0.48161300       0.07695900       0.14500100
    28  H          0.01838700       0.57695900       0.35499900
    29  H          0.55595800       0.78543100       0.86293100
    30  H          0.94404200       0.28543100       0.63706900
    31  H          0.44404200       0.21456900       0.13706900
    32  H          0.05595800       0.71456900       0.36293100
    33  H          0.35176100       0.83389600       0.84885000
    34  H          0.14823900       0.33389600       0.65115000
    35  H          0.64823900       0.16610400       0.15115000
    36  H          0.85176100       0.66610400       0.34885000
    37  C          0.45596000       0.83814000       0.74343000
    38  C          0.04404000       0.33814000       0.75657000
    39  C          0.54404000       0.16186000       0.25657000
    40  C          0.95596000       0.66186000       0.24343000
    41  C          0.49136000       0.93364000       0.69803000
    42  C          0.00864000       0.43364000       0.80197000
    43  C          0.50864000       0.06636000       0.30197000
    44  C         -0.00864000       0.56636000       0.19803000
    45  H          0.52606900       0.00540700       0.72594500
    46  H          0.97393100       0.50540700       0.77405500
    47  H          0.47393100      -0.00540700       0.27405500
    48  H          0.02606900       0.49459300       0.22594500
    49  C          0.47717000       0.92675000       0.61193000
    50  C          0.02283000       0.42675000       0.88807000
    51  C          0.52283000       0.07325000       0.38807000
    52  C          0.97717000       0.57325000       0.11193000
    53  H          0.50038900      -0.00686300       0.58078300
    54  H         -0.00038900       0.49313700       0.91921700
    55  H          0.49961100       0.00686300       0.41921700
    56  H          0.00038900       0.50686300       0.08078300
    57  C          0.42857000       0.82185000       0.57284000
    58  C          0.07143000       0.32185000       0.92716000
    59  C          0.57143000       0.17815000       0.42716000
    60  C          0.92857000       0.67815000       0.07284000
    61  H          0.41984500       0.81535400       0.51404100
    62  H          0.08015500       0.31535400       0.98595900
    63  H          0.58015500       0.18464600       0.48595900
    64  H          0.91984500       0.68464600       0.01404100
    65  C          0.39226000       0.72585000       0.61743000
    66  C          0.10774000       0.22585000       0.88257000
    67  C          0.60774000       0.27415000       0.38257000
    68  C          0.89226000       0.77415000       0.11743000
    69  C          0.33817000       0.61145000       0.57413000
    70  C          0.16183000       0.11145000       0.92587000
    71  C          0.66183000       0.38855000       0.42587000
    72  C          0.83817000       0.88855000       0.07413000
    73  H          0.35545900       0.61556600       0.51631100
    74  H          0.14454100       0.11556600       0.98368900
    75  H          0.64454100       0.38443400       0.48368900
    76  H          0.85545900       0.88443400       0.01631100
    77  H          0.20972100       0.59532700       0.57404100
    78  H          0.29027900       0.09532700       0.92595900
    79  H          0.79027900       0.40467300       0.42595900
    80  H          0.70972100       0.90467300       0.07404100
    81  H          0.41391200       0.54857900       0.60380900
    82  H          0.08608800       0.04857900       0.89619100
    83  H          0.58608800       0.45142100       0.39619100
    84  H          0.91391200       0.95142100       0.10380900
    85  C          0.36876000       0.63104000       0.75063000
    86  C          0.13124000       0.13104000       0.74937000
    87  C          0.63124000       0.36896000       0.24937000
    88  C          0.86876000       0.86896000       0.25063000
    89  H          0.27538400       0.58150000       0.71507700
    90  H          0.22461600       0.08150000       0.78492300
    91  H          0.72461600       0.41850000       0.28492300
    92  H          0.77538400       0.91850000       0.21507700
    93  H          0.31929100       0.65726900       0.79927100
    94  H          0.18070900       0.15726900       0.70072900
    95  H          0.68070900       0.34273100       0.20072900
    96  H          0.81929100       0.84273100       0.29927100
    97  C          0.53827000       0.55915000       0.78134000
    98  C          0.96173000       0.05915000       0.71866000
    99  C          0.46173000       0.44085000       0.21866000
   100  C          0.03827000       0.94085000       0.28134000
   101  H          0.50894200       0.49325200       0.81457300
   102  H         -0.00894200      -0.00674800       0.68542700
   103  H          0.49105800       0.50674800       0.18542700
   104  H          0.00894200       0.00674800       0.31457300
   105  H          0.63154400       0.60798800       0.81605800
   106  H          0.86845600       0.10798800       0.68394200
   107  H          0.36845600       0.39201200       0.18394200
   108  H          0.13154400       0.89201200       0.31605800
   109  H          0.58413600       0.52953300       0.73324700
   110  H          0.91586400       0.02953300       0.76675300
   111  H          0.41586400       0.47046700       0.26675300
   112  H          0.08413600       0.97046700       0.23324700
