data_CIWDAO
_symmetry_space_group_name_H-M    'P1'
_symmetry_Int_Tables_number       1
loop_
_symmetry_equiv_pos_site_id
_symmetry_equiv_pos_as_xyz
1 x,y,z
_cell_length_a                   24.6105
_cell_length_b                   7.5885
_cell_length_c                   11.2895
_cell_angle_alpha                90.0
_cell_angle_beta                 90.0
_cell_angle_gamma                90.0
loop_
_atom_site_label
_atom_site_type_symbol
_atom_site_fract_x
_atom_site_fract_y
_atom_site_fract_z
     1  C          0.14870100       0.32433000       0.47442000
     2  C          0.35129900       0.17567000       0.97442000
     3  C          0.64870100       0.17567000       0.52558000
     4  C          0.85129900       0.32433000       0.02558000
     5  C          0.85129900       0.67567000       0.52558000
     6  C          0.64870100       0.82433000       0.02558000
     7  C          0.35129900       0.82433000       0.47442000
     8  C          0.14870100       0.67567000       0.97442000
     9  H          0.12420000       0.29810000       0.41430000
    10  H          0.37580000       0.20190000       0.91430000
    11  H          0.62420000       0.20190000       0.58570000
    12  H          0.87580000       0.29810000       0.08570000
    13  H          0.87580000       0.70190000       0.58570000
    14  H          0.62420000       0.79810000       0.08570000
    15  H          0.37580000       0.79810000       0.41430000
    16  H          0.12420000       0.70190000       0.91430000
    17  C          0.13336900       0.36883000       0.58393000
    18  C          0.36663100       0.13117000       0.08393000
    19  C          0.63336900       0.13117000       0.41607000
    20  C          0.86663100       0.36883000       0.91607000
    21  C          0.86663100       0.63117000       0.41607000
    22  C          0.63336900       0.86883000       0.91607000
    23  C          0.36663100       0.86883000       0.58393000
    24  C          0.13336900       0.63117000       0.08393000
    25  H          0.09700000       0.37650000       0.60620000
    26  H          0.40300000       0.12350000       0.10620000
    27  H          0.59700000       0.12350000       0.39380000
    28  H          0.90300000       0.37650000       0.89380000
    29  H          0.90300000       0.62350000       0.39380000
    30  H          0.59700000       0.87650000       0.89380000
    31  H          0.40300000       0.87650000       0.60620000
    32  H          0.09700000       0.62350000       0.10620000
    33  C          0.17744700       0.40423000       0.66542000
    34  C          0.32255300       0.09577000       0.16542000
    35  C          0.67744700       0.09577000       0.33458000
    36  C          0.82255300       0.40423000       0.83458000
    37  C          0.82255300       0.59577000       0.33458000
    38  C          0.67744700       0.90423000       0.83458000
    39  C          0.32255300       0.90423000       0.66542000
    40  C          0.17744700       0.59577000       0.16542000
    41  H          0.17420000       0.43470000       0.74480000
    42  H          0.32580000       0.06530000       0.24480000
    43  H          0.67420000       0.06530000       0.25520000
    44  H          0.82580000       0.43470000       0.75520000
    45  H          0.82580000       0.56530000       0.25520000
    46  H          0.67420000       0.93470000       0.75520000
    47  H          0.32580000       0.93470000       0.74480000
    48  H          0.17420000       0.56530000       0.24480000
    49  C          0.22806700       0.38302000       0.59908160
    50  C          0.27193300       0.11698000       0.09908160
    51  C          0.72806700       0.11698000       0.40091840
    52  C          0.77193300       0.38302000       0.90091840
    53  C          0.77193300       0.61698000       0.40091840
    54  C          0.72806700       0.88302000       0.90091840
    55  C          0.27193300       0.88302000       0.59908160
    56  C          0.22806700       0.61698000       0.09908160
    57  C          0.28167700       0.40982000       0.64720160
    58  C          0.21832300       0.09018000       0.14720160
    59  C          0.78167700       0.09018000       0.35279840
    60  C          0.71832300       0.40982000       0.85279840
    61  C          0.71832300       0.59018000       0.35279840
    62  C          0.78167700       0.90982000       0.85279840
    63  C          0.21832300       0.90982000       0.64720160
    64  C          0.28167700       0.59018000       0.14720160
    65  H          0.28360000       0.45030000       0.72490000
    66  H          0.21640000       0.04970000       0.22490000
    67  H          0.78360000       0.04970000       0.27510000
    68  H          0.71640000       0.45030000       0.77510000
    69  H          0.71640000       0.54970000       0.27510000
    70  H          0.78360000       0.95030000       0.77510000
    71  H          0.21640000       0.95030000       0.72490000
    72  H          0.28360000       0.54970000       0.22490000
    73  C          0.32852700       0.38293000       0.59242170
    74  C          0.17147300       0.11707000       0.09242170
    75  C          0.82852700       0.11707000       0.40757830
    76  C          0.67147300       0.38293000       0.90757830
    77  C          0.67147300       0.61707000       0.40757830
    78  C          0.82852700       0.88293000       0.90757830
    79  C          0.17147300       0.88293000       0.59242170
    80  C          0.32852700       0.61707000       0.09242170
    81  H          0.32800000       0.33920000       0.51550000
    82  H          0.17200000       0.16080000       0.01550000
    83  H          0.82800000       0.16080000       0.48450000
    84  H          0.67200000       0.33920000       0.98450000
    85  H          0.67200000       0.66080000       0.48450000
    86  H          0.82800000       0.83920000       0.98450000
    87  H          0.17200000       0.83920000       0.51550000
    88  H          0.32800000       0.66080000       0.01550000
    89  C          0.38095700       0.41922000       0.64811150
    90  C          0.11904300       0.08078000       0.14811150
    91  C          0.88095700       0.08078000       0.35188850
    92  C          0.61904300       0.41922000       0.85188850
    93  C          0.61904300       0.58078000       0.35188850
    94  C          0.88095700       0.91922000       0.85188850
    95  C          0.11904300       0.91922000       0.64811150
    96  C          0.38095700       0.58078000       0.14811150
    97  O          0.42432500       0.40072000       0.59672120
    98  O          0.07567500       0.09928000       0.09672120
    99  O          0.92432500       0.09928000       0.40327880
   100  O          0.57567500       0.40072000       0.90327880
   101  O          0.57567500       0.59928000       0.40327880
   102  O          0.92432500       0.90072000       0.90327880
   103  O          0.07567500       0.90072000       0.59672120
   104  O          0.42432500       0.59928000       0.09672120
   105  O          0.37829500       0.47202000       0.75866120
   106  O          0.12170500       0.02798000       0.25866120
   107  O          0.87829500       0.02798000       0.24133880
   108  O          0.62170500       0.47202000       0.74133880
   109  O          0.62170500       0.52798000       0.24133880
   110  O          0.87829500       0.97202000       0.74133880
   111  O          0.12170500       0.97202000       0.75866120
   112  O          0.37829500       0.52798000       0.25866120
   113  S          0.21661200       0.32011900       0.45512500
   114  S          0.28338800       0.17988100       0.95512500
   115  S          0.71661200       0.17988100       0.54487500
   116  S          0.78338800       0.32011900       0.04487500
   117  S          0.78338800       0.67988100       0.54487500
   118  S          0.71661200       0.82011900       0.04487500
   119  S          0.28338800       0.82011900       0.45512500
   120  S          0.21661200       0.67988100       0.95512500
   121  H          0.40491300       0.49840000       0.78830000
   122  H          0.09508700       0.00160000       0.28830000
   123  H          0.90491300       0.00160000       0.21170000
   124  H          0.59508700       0.49840000       0.71170000
   125  H          0.59508700       0.50160000       0.21170000
   126  H          0.90491300      -0.00160000       0.71170000
   127  H          0.09508700      -0.00160000       0.78830000
   128  H          0.40491300       0.50160000       0.28830000
   129  C          0.51465110       0.93213000       0.19764000
   130  C          0.98534890       0.56787000       0.69764000
   131  C          0.01465110       0.56787000       0.80236000
   132  C          0.48534890       0.93213000       0.30236000
   133  C          0.48534890       0.06787000       0.80236000
   134  C          0.01465110       0.43213000       0.30236000
   135  C          0.98534890       0.43213000       0.19764000
   136  C          0.51465110       0.06787000       0.69764000
   137  H          0.52460000       0.82590000       0.16260000
   138  H          0.97540000       0.67410000       0.66260000
   139  H          0.02460000       0.67410000       0.83740000
   140  H          0.47540000       0.82590000       0.33740000
   141  H          0.47540000       0.17410000       0.83740000
   142  H          0.02460000       0.32590000       0.33740000
   143  H          0.97540000       0.32590000       0.16260000
   144  H          0.52460000       0.17410000       0.66260000
   145  C          0.52890800       0.08813000       0.14542000
   146  C          0.97109200       0.41187000       0.64542000
   147  C          0.02890800       0.41187000       0.85458000
   148  C          0.47109200       0.08813000       0.35458000
   149  C          0.47109200       0.91187000       0.85458000
   150  C          0.02890800       0.58813000       0.35458000
   151  C          0.97109200       0.58813000       0.14542000
   152  C          0.52890800       0.91187000       0.64542000
   153  H          0.54850000       0.08740000       0.07500000
   154  H          0.95150000       0.41260000       0.57500000
   155  H          0.04850000       0.41260000       0.92500000
   156  H          0.45150000       0.08740000       0.42500000
   157  H          0.45150000       0.91260000       0.92500000
   158  H          0.04850000       0.58740000       0.42500000
   159  H          0.95150000       0.58740000       0.07500000
   160  H          0.54850000       0.91260000       0.57500000
   161  C          0.51435600       0.24702000       0.19650140
   162  C          0.98564400       0.25298000       0.69650140
   163  C          0.01435600       0.25298000       0.80349860
   164  C          0.48564400       0.24702000       0.30349860
   165  C          0.48564400       0.75298000       0.80349860
   166  C          0.01435600       0.74702000       0.30349860
   167  C          0.98564400       0.74702000       0.19650140
   168  C          0.51435600       0.75298000       0.69650140
   169  N          0.52999700       0.41052000       0.14526130
   170  N          0.97000300       0.08948000       0.64526130
   171  N          0.02999700       0.08948000       0.85473870
   172  N          0.47000300       0.41052000       0.35473870
   173  N          0.47000300       0.58948000       0.85473870
   174  N          0.02999700       0.91052000       0.35473870
   175  N          0.97000300       0.91052000       0.14526130
   176  N          0.52999700       0.58948000       0.64526130
   177  H          0.54689000       0.40330000       0.06920000
   178  H          0.95311000       0.09670000       0.56920000
   179  H          0.04689000       0.09670000       0.93080000
   180  H          0.45311000       0.40330000       0.43080000
   181  H          0.45311000       0.59670000       0.93080000
   182  H          0.04689000       0.90330000       0.43080000
   183  H          0.95311000       0.90330000       0.06920000
   184  H          0.54689000       0.59670000       0.56920000
   185  H          0.50861000       0.47330000       0.14720000
   186  H          0.99139000       0.02670000       0.64720000
   187  H          0.00861000       0.02670000       0.85280000
   188  H          0.49139000       0.47330000       0.35280000
   189  H          0.49139000       0.52670000       0.85280000
   190  H          0.00861000       0.97330000       0.35280000
   191  H          0.99139000       0.97330000       0.14720000
   192  H          0.50861000       0.52670000       0.64720000
