data_CIWNOL
_symmetry_space_group_name_H-M    'P1'
_symmetry_Int_Tables_number       1
loop_
_symmetry_equiv_pos_site_id
_symmetry_equiv_pos_as_xyz
1 x,y,z
_cell_length_a                   16.8413
_cell_length_b                   9.9983
_cell_length_c                   7.7762
_cell_angle_alpha                113.642
_cell_angle_beta                 99.722
_cell_angle_gamma                100.032
loop_
_atom_site_label
_atom_site_type_symbol
_atom_site_fract_x
_atom_site_fract_y
_atom_site_fract_z
     1  S          0.03291000       0.61082000       0.76682000
     2  S          0.96709000       0.38918000       0.23318000
     3  S          0.07881000       0.32652000       0.70812000
     4  S          0.92119000       0.67348000       0.29188000
     5  S          0.84899000       0.46172000       0.77492000
     6  S          0.15101000       0.53828000       0.22508000
     7  S          0.89469000       0.17702000       0.71262000
     8  S          0.10531000       0.82298000       0.28738000
     9  S          0.20471000       0.74872000       0.74092000
    10  S          0.79529000       0.25128000       0.25908000
    11  S          0.24951000       0.45642000       0.66833000
    12  S          0.75049000       0.54358000       0.33167000
    13  S          0.66949000       0.31132000       0.75123000
    14  S          0.33051000       0.68868000       0.24877000
    15  S          0.71699000       0.03002000       0.70492000
    16  S          0.28301000       0.96998000       0.29508000
    17  C          0.00253000       0.42486000       0.73648000
    18  C         -0.00253000       0.57514000       0.26352000
    19  C          0.92487000       0.36186000       0.73997000
    20  C          0.07513000       0.63814000       0.26003000
    21  C          0.13183000       0.60046000       0.73738000
    22  C          0.86817000       0.39954000       0.26262000
    23  C          0.15213000       0.47096000       0.70798000
    24  C          0.84787000       0.52904000       0.29202000
    25  C          0.77187000       0.30846000       0.74178000
    26  C          0.22813000       0.69154000       0.25822000
    27  C          0.79267000       0.17866000       0.71518000
    28  C          0.20733000       0.82134000       0.28482000
    29  C          0.28894000       0.65808000       0.74131200
    30  C          0.71106000       0.34192000       0.25868800
    31  C          0.63266000       0.10388000       0.63131000
    32  C          0.36734000       0.89612000       0.36869000
    33  S          0.06591000       0.96888000       0.77258000
    34  S          0.93409000       0.03112000       0.22742000
    35  S          0.12051000       0.14902000       0.20422000
    36  S          0.87949000       0.85098000       0.79578000
    37  S          0.22821000       0.13592000       0.73998000
    38  S          0.77179000       0.86408000       0.26002000
    39  S          0.28321000       0.31882000       0.16942000
    40  S          0.71679000       0.68118000       0.83058000
    41  C          0.03843000       0.02515000      -0.00418000
    42  C          0.96157000       0.97485000       0.00418000
    43  C          0.16463000       0.09746000       0.87832000
    44  C          0.83537000       0.90254000       0.12168000
    45  C          0.18883000       0.17776000       0.06848000
    46  C          0.81117000       0.82224000       0.93152000
    47  C          0.31864000       0.24318000       0.95019000
    48  C          0.68136000       0.75682000       0.04981000
    49  Cl         0.47252000       0.42396000       0.70376000
    50  Cl         0.52748000       0.57604000       0.29624000
    51  C          0.50568000       0.43191300       0.47422000
    52  C          0.49432000       0.56808700       0.52578000
    53  P          0.50000000      -0.00000000      -0.00000000
    54  F          0.48503000       0.84965000       0.02607000
    55  F          0.51497000       0.15035000       0.97393000
    56  F          0.41785000       0.01171000       0.03661800
    57  F          0.58215000      -0.01171000       0.96338200
    58  F          0.54588000       0.08359000       0.20331100
    59  F          0.45412000       0.91641000       0.79668900
