data_CIXHOH
_symmetry_space_group_name_H-M    'P1'
_symmetry_Int_Tables_number       1
loop_
_symmetry_equiv_pos_site_id
_symmetry_equiv_pos_as_xyz
1 x,y,z
_cell_length_a                   11.46422
_cell_length_b                   14.38703
_cell_length_c                   11.16912
_cell_angle_alpha                90.0
_cell_angle_beta                 117.70101
_cell_angle_gamma                90.0
loop_
_atom_site_label
_atom_site_type_symbol
_atom_site_fract_x
_atom_site_fract_y
_atom_site_fract_z
     1  C          0.39313000       0.53745190       0.84433000
     2  C          0.60687000       0.03745190       0.65567000
     3  C          0.60687000       0.46254810       0.15567000
     4  C          0.39313000       0.96254810       0.34433000
     5  C          0.41033000       0.65358190       0.69933000
     6  C          0.58967000       0.15358190       0.80067000
     7  C          0.58967000       0.34641810       0.30067000
     8  C          0.41033000       0.84641810       0.19933000
     9  C          0.48703000       0.71822000       0.67393000
    10  C          0.51297000       0.21822000       0.82607000
    11  C          0.51297000       0.28178000       0.32607000
    12  C          0.48703000       0.78178000       0.17393000
    13  H          0.57540000       0.72590000       0.73560000
    14  H          0.42460000       0.22590000       0.76440000
    15  H          0.42460000       0.27410000       0.26440000
    16  H          0.57540000       0.77410000       0.23560000
    17  C          0.43153000       0.77052000       0.55743000
    18  C          0.56847000       0.27052000       0.94257000
    19  C          0.56847000       0.22948000       0.44257000
    20  C          0.43153000       0.72948000       0.05743000
    21  H          0.48190000       0.81420000       0.54060000
    22  H          0.51810000       0.31420000       0.95940000
    23  H          0.51810000       0.18580000       0.45940000
    24  H          0.48190000       0.68580000       0.04060000
    25  C          0.29843000       0.75752000       0.46393000
    26  C          0.70157000       0.25752000       0.03607000
    27  C          0.70157000       0.24248000       0.53607000
    28  C          0.29843000       0.74248000       0.96393000
    29  H          0.26080000       0.79240000       0.38470000
    30  H          0.73920000       0.29240000       0.11530000
    31  H          0.73920000       0.20760000       0.61530000
    32  H          0.26080000       0.70760000       0.88470000
    33  C          0.22333000       0.69352000       0.48893000
    34  C          0.77667000       0.19352000       0.01107000
    35  C          0.77667000       0.30648000       0.51107000
    36  C          0.22333000       0.80648000      -0.01107000
    37  H          0.13490000       0.68600000       0.42690000
    38  H          0.86510000       0.18600000       0.07310000
    39  H          0.86510000       0.31400000       0.57310000
    40  H          0.13490000       0.81400000       0.92690000
    41  C          0.27823000       0.63921190       0.60663000
    42  C          0.72177000       0.13921190       0.89337000
    43  C          0.72177000       0.36078810       0.39337000
    44  C          0.27823000       0.86078810       0.10663000
    45  C          0.25633000       0.52300190       0.73813000
    46  C          0.74367000       0.02300190       0.76187000
    47  C          0.74367000       0.47699810       0.26187000
    48  C          0.25633000       0.97699810       0.23813000
    49  N          0.46602000       0.60139150       0.81842000
    50  N          0.53398000       0.10139150       0.68158000
    51  N          0.53398000       0.39860850       0.18158000
    52  N          0.46602000       0.89860850       0.31842000
    53  N          0.20012000       0.57200150       0.62612000
    54  N          0.79988000       0.07200150       0.87388000
    55  N          0.79988000       0.42799850       0.37388000
    56  N          0.20012000       0.92799850       0.12612000
    57  N          0.43532000       0.48974160       0.95432000
    58  N          0.56468000       0.98974160       0.54568000
    59  N          0.56468000       0.51025840       0.04568000
    60  N          0.43532000       0.01025840       0.45432000
    61  H          0.38820000       0.44950000       0.96930000
    62  H          0.61180000       0.94950000       0.53070000
    63  H          0.61180000       0.55050000       0.03070000
    64  H          0.38820000       0.05050000       0.46930000
    65  N          0.19272000       0.45455160       0.76382000
    66  N          0.80728000       0.95455160       0.73618000
    67  N          0.80728000       0.54544840       0.23618000
    68  N          0.19272000       0.04544840       0.26382000
    69  H          0.23150000       0.42700000       0.84080000
    70  H          0.76850000       0.92700000       0.65920000
    71  H          0.76850000       0.57300000       0.15920000
    72  H          0.23150000       0.07300000       0.34080000
    73  N          0.06522000       0.42517160       0.67102000
    74  N          0.93478000       0.92517160       0.82898000
    75  N          0.93478000       0.57482840       0.32898000
    76  N          0.06522000       0.07482840       0.17102000
    77  H          0.02460000       0.45170000       0.59330000
    78  H          0.97540000       0.95170000       0.90670000
    79  H          0.97540000       0.54830000       0.40670000
    80  H          0.02460000       0.04830000       0.09330000
    81  H          0.02800000       0.38070000       0.69190000
    82  H          0.97200000       0.88070000       0.80810000
    83  H          0.97200000       0.61930000       0.30810000
    84  H          0.02800000       0.11930000       0.19190000
    85  C          0.28693000       0.13502000       0.01713000
    86  C          0.71307000       0.63502000       0.48287000
    87  C          0.71307000       0.86498000       0.98287000
    88  C          0.28693000       0.36498000       0.51713000
    89  H          0.37980000       0.13020000       0.04680000
    90  H          0.62020000       0.63020000       0.45320000
    91  H          0.62020000       0.86980000       0.95320000
    92  H          0.37980000       0.36980000       0.54680000
    93  H          0.24450000       0.07810000       0.97390000
    94  H          0.75550000       0.57810000       0.52610000
    95  H          0.75550000       0.92190000       0.02610000
    96  H          0.24450000       0.42190000       0.47390000
    97  H          0.27190000       0.14630000       0.09350000
    98  H          0.72810000       0.64630000       0.40650000
    99  H          0.72810000       0.85370000       0.90650000
   100  H          0.27190000       0.35370000       0.59350000
   101  C          0.05483000       0.21742000       0.86706000
   102  C          0.94517000       0.71742000       0.63294000
   103  C          0.94517000       0.78258000       0.13294000
   104  C          0.05483000       0.28258000       0.36706000
   105  H          0.00290000       0.26430000       0.80350000
   106  H         -0.00290000       0.76430000       0.69650000
   107  H         -0.00290000       0.73570000       0.19650000
   108  H          0.00290000       0.23570000       0.30350000
   109  H          0.04910000       0.22510000       0.94960000
   110  H          0.95090000       0.72510000       0.55040000
   111  H          0.95090000       0.77490000       0.05040000
   112  H          0.04910000       0.27490000       0.44960000
   113  H          0.02240000       0.15710000       0.82990000
   114  H          0.97760000       0.65710000       0.67010000
   115  H          0.97760000       0.84290000       0.17010000
   116  H          0.02240000       0.34290000       0.32990000
   117  O          0.27313190       0.31628140       0.98398000
   118  O          0.72686810       0.81628140       0.51602000
   119  O          0.72686810       0.68371860       0.01602000
   120  O          0.27313190       0.18371860       0.48398000
   121  S          0.22127800       0.22806600       0.90087200
   122  S          0.77872200       0.72806600       0.59912800
   123  S          0.77872200       0.77193400       0.09912800
   124  S          0.22127800       0.27193400       0.40087200
   125  C          0.36003000       0.55423000       0.30404000
   126  C          0.63997000       0.05423000       0.19596000
   127  C          0.63997000       0.44577000       0.69596000
   128  C          0.36003000       0.94577000       0.80404000
   129  H          0.38270000       0.57440000       0.39420000
   130  H          0.61730000       0.07440000       0.10580000
   131  H          0.61730000       0.42560000       0.60580000
   132  H          0.38270000       0.92560000       0.89420000
   133  H          0.40560000       0.59180000       0.26810000
   134  H          0.59440000       0.09180000       0.23190000
   135  H          0.59440000       0.40820000       0.73190000
   136  H          0.40560000       0.90820000       0.76810000
   137  H          0.38490000       0.49040000       0.30600000
   138  H          0.61510000      -0.00960000       0.19400000
   139  H          0.61510000       0.50960000       0.69400000
   140  H          0.38490000       0.00960000       0.80600000
   141  C          0.17983000       0.52403000       0.04623000
   142  C          0.82017000       0.02403000       0.45377000
   143  C          0.82017000       0.47597000       0.95377000
   144  C          0.17983000       0.97597000       0.54623000
   145  H          0.09030000       0.52470000       0.97580000
   146  H          0.90970000       0.02470000       0.52420000
   147  H          0.90970000       0.47530000       0.02420000
   148  H          0.09030000       0.97530000       0.47580000
   149  H          0.21330000       0.46160000       0.05920000
   150  H          0.78670000       0.96160000       0.44080000
   151  H          0.78670000       0.53840000       0.94080000
   152  H          0.21330000       0.03840000       0.55920000
   153  H          0.23250000       0.56320000       0.02090000
   154  H          0.76750000       0.06320000       0.47910000
   155  H          0.76750000       0.43680000       0.97910000
   156  H          0.23250000       0.93680000       0.52090000
   157  O          0.12322000       0.49180170       0.24512000
   158  O          0.87678000      -0.00819830       0.25488000
   159  O          0.87678000       0.50819830       0.75488000
   160  O          0.12322000       0.00819830       0.74512000
   161  S          0.18628800       0.56577600       0.19951800
   162  S          0.81371200       0.06577600       0.30048200
   163  S          0.81371200       0.43422400       0.80048200
   164  S          0.18628800       0.93422400       0.69951800
