data_CIXROT
_symmetry_space_group_name_H-M    'P1'
_symmetry_Int_Tables_number       1
loop_
_symmetry_equiv_pos_site_id
_symmetry_equiv_pos_as_xyz
1 x,y,z
_cell_length_a                   7.6117016
_cell_length_b                   16.09224
_cell_length_c                   20.61685
_cell_angle_alpha                90.0
_cell_angle_beta                 90.0
_cell_angle_gamma                90.0
loop_
_atom_site_label
_atom_site_type_symbol
_atom_site_fract_x
_atom_site_fract_y
_atom_site_fract_z
     1  I          0.08798300       0.45614213       0.69375910
     2  I          0.41201700       0.54385787       0.19375910
     3  I          0.91201700       0.95614213       0.80624090
     4  I          0.58798300       0.04385787       0.30624090
     5  I          0.90326700       0.30343514       0.69449513
     6  I          0.59673300       0.69656486       0.19449513
     7  I          0.09673300       0.80343514       0.80550487
     8  I          0.40326700       0.19656486       0.30550487
     9  P          0.50440100       0.59039500       0.68611400
    10  P         -0.00440100       0.40960500       0.18611400
    11  P          0.49559900       0.09039500       0.81388600
    12  P          0.00440100       0.90960500       0.31388600
    13  S          0.24493100       0.61002500       0.69505400
    14  S          0.25506900       0.38997500       0.19505400
    15  S          0.75506900       0.11002500       0.80494600
    16  S          0.74493100       0.88997500       0.30494600
    17  P          0.50795900       0.44362500       0.50085400
    18  P         -0.00795900       0.55637500       0.00085400
    19  P          0.49204100       0.94362500      -0.00085400
    20  P          0.00795900       0.05637500       0.49914600
    21  S          0.76487900       0.41911500       0.49502400
    22  S          0.73512100       0.58088500      -0.00497600
    23  S          0.23512100       0.91911500       0.00497600
    24  S          0.26487900       0.08088500       0.50497600
    25  C          0.55334000       0.50803190       0.62810140
    26  C          0.94666000       0.49196810       0.12810140
    27  C          0.44666000       0.00803190       0.87189860
    28  C          0.05334000      -0.00803190       0.37189860
    29  H          0.68140000       0.50690000       0.61980000
    30  H          0.81860000       0.49310000       0.11980000
    31  H          0.31860000       0.00690000       0.88020000
    32  H          0.18140000      -0.00690000       0.38020000
    33  H          0.51970000       0.45380000       0.64710000
    34  H          0.98030000       0.54620000       0.14710000
    35  H          0.48030000       0.95380000       0.85290000
    36  H          0.01970000       0.04620000       0.35290000
    37  C          0.45594000       0.51983190       0.56343140
    38  C          0.04406000       0.48016810       0.06343140
    39  C          0.54406000       0.01983190       0.93656860
    40  C          0.95594000       0.98016810       0.43656860
    41  H          0.48340000       0.57590000       0.54650000
    42  H          0.01660000       0.42410000       0.04650000
    43  H          0.51660000       0.07590000       0.95350000
    44  H         -0.01660000       0.92410000       0.45350000
    45  H          0.32790000       0.51780000       0.57190000
    46  H          0.17210000       0.48220000       0.07190000
    47  H          0.67210000       0.01780000       0.92810000
    48  H          0.82790000       0.98220000       0.42810000
    49  C          0.60834000       0.56082000       0.76266140
    50  C          0.89166000       0.43918000       0.26266140
    51  C          0.39166000       0.06082000       0.73733860
    52  C          0.10834000       0.93918000       0.23733860
    53  H          0.73710000       0.55430000       0.75460000
    54  H          0.76290000       0.44570000       0.25460000
    55  H          0.26290000       0.05430000       0.74540000
    56  H          0.23710000       0.94570000       0.24540000
    57  C          0.58395000       0.62922000       0.81317160
    58  C          0.91605000       0.37078000       0.31317160
    59  C          0.41605000       0.12922000       0.68682840
    60  C          0.08395000       0.87078000       0.18682840
    61  H          0.45900000       0.64350000       0.81640000
    62  H          0.04100000       0.35650000       0.31640000
    63  H          0.54100000       0.14350000       0.68360000
    64  H          0.95900000       0.85650000       0.18360000
    65  H          0.65080000       0.67850000       0.80010000
    66  H          0.84920000       0.32150000       0.30010000
    67  H          0.34920000       0.17850000       0.69990000
    68  H          0.15080000       0.82150000       0.19990000
    69  H          0.62620000       0.60960000       0.85540000
    70  H          0.87380000       0.39040000       0.35540000
    71  H          0.37380000       0.10960000       0.64460000
    72  H          0.12620000       0.89040000       0.14460000
    73  C          0.53805000       0.47772000       0.78785160
    74  C          0.96195000       0.52228000       0.28785160
    75  C          0.46195000       0.97772000       0.71214840
    76  C          0.03805000       0.02228000       0.21214840
    77  H          0.59940000       0.46280000       0.82800000
    78  H          0.90060000       0.53720000       0.32800000
    79  H          0.40060000       0.96280000       0.67200000
    80  H          0.09940000       0.03720000       0.17200000
    81  H          0.55780000       0.43440000       0.75520000
    82  H          0.94220000       0.56560000       0.25520000
    83  H          0.44220000       0.93440000       0.74480000
    84  H          0.05780000       0.06560000       0.24480000
    85  H          0.41180000       0.48260000       0.79650000
    86  H          0.08820000       0.51740000       0.29650000
    87  H          0.58820000       0.98260000       0.70350000
    88  H          0.91180000       0.01740000       0.20350000
    89  C          0.60814000       0.68455190       0.65378160
    90  C          0.89186000       0.31544810       0.15378160
    91  C          0.39186000       0.18455190       0.84621840
    92  C          0.10814000       0.81544810       0.34621840
    93  H          0.58830000       0.68300000       0.60580000
    94  H          0.91170000       0.31700000       0.10580000
    95  H          0.41170000       0.18300000       0.89420000
    96  H          0.08830000       0.81700000       0.39420000
    97  C          0.80894000       0.68322000       0.66324170
    98  C          0.69106000       0.31678000       0.16324170
    99  C          0.19106000       0.18322000       0.83675830
   100  C          0.30894000       0.81678000       0.33675830
   101  H          0.86230000       0.72800000       0.63780000
   102  H          0.63770000       0.27200000       0.13780000
   103  H          0.13770000       0.22800000       0.86220000
   104  H          0.36230000       0.77200000       0.36220000
   105  H          0.85570000       0.62960000       0.64870000
   106  H          0.64430000       0.37040000       0.14870000
   107  H          0.14430000       0.12960000       0.85130000
   108  H          0.35570000       0.87040000       0.35130000
   109  H          0.83650000       0.69120000       0.70930000
   110  H          0.66350000       0.30880000       0.20930000
   111  H          0.16350000       0.19120000       0.79070000
   112  H          0.33650000       0.80880000       0.29070000
   113  C          0.52765000       0.76582000       0.67719180
   114  C          0.97235000       0.23418000       0.17719180
   115  C          0.47235000       0.26582000       0.82280820
   116  C          0.02765000       0.73418000       0.32280820
   117  H          0.55130000       0.77270000       0.72360000
   118  H          0.94870000       0.22730000       0.22360000
   119  H          0.44870000       0.27270000       0.77640000
   120  H          0.05130000       0.72730000       0.27640000
   121  H          0.40040000       0.76470000       0.66990000
   122  H          0.09960000       0.23530000       0.16990000
   123  H          0.59960000       0.26470000       0.83010000
   124  H          0.90040000       0.73530000       0.33010000
   125  H          0.57940000       0.81230000       0.65310000
   126  H          0.92060000       0.18770000       0.15310000
   127  H          0.42060000       0.31230000       0.84690000
   128  H          0.07940000       0.68770000       0.34690000
   129  C          0.41604000       0.48614190       0.42577150
   130  C          0.08396000       0.51385810       0.92577150
   131  C          0.58396000       0.98614190       0.07422850
   132  C          0.91604000       0.01385810       0.57422850
   133  H          0.28980000       0.49990000       0.43390000
   134  H          0.21020000       0.50010000       0.93390000
   135  H          0.71020000      -0.00010000       0.06610000
   136  H          0.78980000       0.00010000       0.56610000
   137  C          0.42325000       0.42062000       0.37176150
   138  C          0.07675000       0.57938000       0.87176150
   139  C          0.57675000       0.92062000       0.12823850
   140  C          0.92325000       0.07938000       0.62823850
   141  H          0.37800000       0.44460000       0.33140000
   142  H          0.12200000       0.55540000       0.83140000
   143  H          0.62200000       0.94460000       0.16860000
   144  H          0.87800000       0.05540000       0.66860000
   145  H          0.35100000       0.37270000       0.38400000
   146  H          0.14900000       0.62730000       0.88400000
   147  H          0.64900000       0.87270000       0.11600000
   148  H          0.85100000       0.12730000       0.61600000
   149  H          0.54500000       0.40270000       0.36540000
   150  H          0.95500000       0.59730000       0.86540000
   151  H          0.45500000       0.90270000       0.13460000
   152  H          0.04500000       0.09730000       0.63460000
   153  C          0.50884000       0.56572000       0.40380160
   154  C         -0.00884000       0.43428000       0.90380160
   155  C          0.49116000       0.06572000       0.09619840
   156  C          0.00884000       0.93428000       0.59619840
   157  H          0.63160000       0.55310000       0.39340000
   158  H          0.86840000       0.44690000       0.89340000
   159  H          0.36840000       0.05310000       0.10660000
   160  H          0.13160000       0.94690000       0.60660000
   161  H          0.50440000       0.60690000       0.43870000
   162  H         -0.00440000       0.39310000       0.93870000
   163  H          0.49560000       0.10690000       0.06130000
   164  H          0.00440000       0.89310000       0.56130000
   165  H          0.44990000       0.58780000       0.36520000
   166  H          0.05010000       0.41220000       0.86520000
   167  H          0.55010000       0.08780000       0.13480000
   168  H          0.94990000       0.91220000       0.63480000
   169  C          0.39304000       0.34605180       0.51686160
   170  C          0.10696000       0.65394820       0.01686160
   171  C          0.60696000       0.84605180       0.98313840
   172  C          0.89304000       0.15394820       0.48313840
   173  H          0.42760000       0.30680000       0.48150000
   174  H          0.07240000       0.69320000       0.98150000
   175  H          0.57240000       0.80680000       0.01850000
   176  H          0.92760000       0.19320000       0.51850000
   177  C          0.19094000       0.35482000       0.51319180
   178  C          0.30906000       0.64518000       0.01319180
   179  C          0.80906000       0.85482000       0.98680820
   180  C          0.69094000       0.14518000       0.48680820
   181  H          0.13620000       0.30080000       0.52160000
   182  H          0.36380000       0.69920000       0.02160000
   183  H          0.86380000       0.80080000       0.97840000
   184  H          0.63620000       0.19920000       0.47840000
   185  H          0.15730000       0.37430000       0.46990000
   186  H          0.34270000       0.62570000       0.96990000
   187  H          0.84270000       0.87430000       0.03010000
   188  H          0.65730000       0.12570000       0.53010000
   189  H          0.15130000       0.39500000       0.54580000
   190  H          0.34870000       0.60500000       0.04580000
   191  H          0.84870000       0.89500000       0.95420000
   192  H          0.65130000       0.10500000       0.45420000
   193  C          0.44654000       0.30472000       0.58079160
   194  C          0.05346000       0.69528000       0.08079160
   195  C          0.55346000       0.80472000       0.91920840
   196  C          0.94654000       0.19528000       0.41920840
   197  H          0.39470000       0.33530000       0.61720000
   198  H          0.10530000       0.66470000       0.11720000
   199  H          0.60530000       0.83530000       0.88280000
   200  H          0.89470000       0.16470000       0.38280000
   201  H          0.57480000       0.30530000       0.58480000
   202  H          0.92520000       0.69470000       0.08480000
   203  H          0.42520000       0.80530000       0.91520000
   204  H          0.07480000       0.19470000       0.41520000
   205  H          0.40440000       0.24720000       0.58140000
   206  H          0.09560000       0.75280000       0.08140000
   207  H          0.59560000       0.74720000       0.91860000
   208  H          0.90440000       0.25280000       0.41860000
   209  I          0.94645200       0.57226412       0.50258010
   210  I          0.55354800       0.42773588       0.00258010
   211  I          0.05354800       0.07226412      -0.00258010
   212  I          0.44645200       0.92773588       0.49741990
   213  I          0.16711300       0.71105113       0.51247511
   214  I          0.33288700       0.28894887       0.01247511
   215  I          0.83288700       0.21105113       0.98752489
   216  I          0.66711300       0.78894887       0.48752489
