data_CIXRIN
_symmetry_space_group_name_H-M    'P1'
_symmetry_Int_Tables_number       1
loop_
_symmetry_equiv_pos_site_id
_symmetry_equiv_pos_as_xyz
1 x,y,z
_cell_length_a                   12.42025
_cell_length_b                   12.31424
_cell_length_c                   15.55856
_cell_angle_alpha                90.0
_cell_angle_beta                 112.8634
_cell_angle_gamma                90.0
loop_
_atom_site_label
_atom_site_type_symbol
_atom_site_fract_x
_atom_site_fract_y
_atom_site_fract_z
     1  I          0.16715813       0.59183912       0.38566410
     2  I          0.83284187       0.09183912       0.11433590
     3  I          0.83284187       0.40816088       0.61433590
     4  I          0.16715813       0.90816088       0.88566410
     5  I         -0.00481415       0.53444916       0.20869511
     6  I          0.00481415       0.03444916       0.29130489
     7  I          0.00481415       0.46555084       0.79130489
     8  I         -0.00481415       0.96555084       0.70869511
     9  P          0.28259500       0.76784500       0.60109400
    10  P          0.71740500       0.26784500       0.89890600
    11  P          0.71740500       0.23215500       0.39890600
    12  P          0.28259500       0.73215500       0.10109400
    13  S          0.33424500       0.63092500       0.55811400
    14  S          0.66575500       0.13092500       0.94188600
    15  S          0.66575500       0.36907500       0.44188600
    16  S          0.33424500       0.86907500       0.05811400
    17  P          0.53622500       0.75623400       0.76745400
    18  P          0.46377500       0.25623400       0.73254600
    19  P          0.46377500       0.24376600       0.23254600
    20  P          0.53622500       0.74376600       0.26745400
    21  S          0.51129500       0.61544400       0.81520400
    22  S          0.48870500       0.11544400       0.68479600
    23  S          0.48870500       0.38455600       0.18479600
    24  S          0.51129500       0.88455600       0.31520400
    25  C          0.39984180       0.82882170       0.70104140
    26  C          0.60015820       0.32882170       0.79895860
    27  C          0.60015820       0.17117830       0.29895860
    28  C          0.39984180       0.67117830       0.20104140
    29  H          0.36520000       0.84980000       0.74620000
    30  H          0.63480000       0.34980000       0.75380000
    31  H          0.63480000       0.15020000       0.25380000
    32  H          0.36520000       0.65020000       0.24620000
    33  H          0.42210000       0.89710000       0.67860000
    34  H          0.57790000       0.39710000       0.82140000
    35  H          0.57790000       0.10290000       0.32140000
    36  H          0.42210000       0.60290000       0.17860000
    37  C          0.23732000       0.87196180       0.51056150
    38  C          0.76268000       0.37196180       0.98943850
    39  C          0.76268000       0.12803820       0.48943850
    40  C          0.23732000       0.62803820       0.01056150
    41  H          0.16980000       0.84190000       0.45640000
    42  H          0.83020000       0.34190000       0.04360000
    43  H          0.83020000       0.15810000       0.54360000
    44  H          0.16980000       0.65810000       0.95640000
    45  C          0.33422000       0.89722000       0.47609170
    46  C          0.66578000       0.39722000       0.02390830
    47  C          0.66578000       0.10278000       0.52390830
    48  C          0.33422000       0.60278000       0.97609170
    49  H          0.30330000       0.94400000       0.42100000
    50  H          0.69670000       0.44400000       0.07900000
    51  H          0.69670000       0.05600000       0.57900000
    52  H          0.30330000       0.55600000       0.92100000
    53  H          0.36290000       0.82930000       0.45980000
    54  H          0.63710000       0.32930000       0.04020000
    55  H          0.63710000       0.17070000       0.54020000
    56  H          0.36290000       0.67070000       0.95980000
    57  H          0.39850000       0.93430000       0.52540000
    58  H          0.60150000       0.43430000       0.97460000
    59  H          0.60150000       0.06570000       0.47460000
    60  H          0.39850000       0.56570000       0.02540000
    61  C          0.19412000       0.97442180       0.54331160
    62  C          0.80588000       0.47442180       0.95668840
    63  C          0.80588000       0.02557820       0.45668840
    64  C          0.19412000       0.52557820       0.04331160
    65  H          0.25680000       0.00360000       0.59890000
    66  H          0.74320000       0.50360000       0.90110000
    67  H          0.74320000      -0.00360000       0.40110000
    68  H          0.25680000       0.49640000       0.09890000
    69  H          0.12660000       0.95620000       0.55840000
    70  H          0.87340000       0.45620000       0.94160000
    71  H          0.87340000       0.04380000       0.44160000
    72  H          0.12660000       0.54380000       0.05840000
    73  H          0.17110000       0.02900000       0.49350000
    74  H          0.82890000       0.52900000       0.00650000
    75  H          0.82890000       0.97100000       0.50650000
    76  H          0.17110000       0.47100000      -0.00650000
    77  C          0.16372000       0.74702000       0.63986170
    78  C          0.83628000       0.24702000       0.86013830
    79  C          0.83628000       0.25298000       0.36013830
    80  C          0.16372000       0.75298000       0.13986170
    81  H          0.15210000       0.81720000       0.66750000
    82  H          0.84790000       0.31720000       0.83250000
    83  H          0.84790000       0.18280000       0.33250000
    84  H          0.15210000       0.68280000       0.16750000
    85  C          0.04762000       0.71962000       0.55997190
    86  C          0.95238000       0.21962000       0.94002810
    87  C          0.95238000       0.28038000       0.44002810
    88  C          0.04762000       0.78038000       0.05997190
    89  H          0.05470000       0.64990000       0.53220000
    90  H          0.94530000       0.14990000       0.96780000
    91  H          0.94530000       0.35010000       0.46780000
    92  H          0.05470000       0.85010000       0.03220000
    93  H          0.02810000       0.77660000       0.51240000
    94  H          0.97190000       0.27660000       0.98760000
    95  H          0.97190000       0.22340000       0.48760000
    96  H          0.02810000       0.72340000       0.01240000
    97  H         -0.01430000       0.71470000       0.58410000
    98  H          0.01430000       0.21470000       0.91590000
    99  H          0.01430000       0.28530000       0.41590000
   100  H         -0.01430000       0.78530000       0.08410000
   101  C          0.19553000       0.66182000       0.71702000
   102  C          0.80447000       0.16182000       0.78298000
   103  C          0.80447000       0.33818000       0.28298000
   104  C          0.19553000       0.83818000       0.21702000
   105  H          0.13480000       0.65970000       0.74260000
   106  H          0.86520000       0.15970000       0.75740000
   107  H          0.86520000       0.34030000       0.25740000
   108  H          0.13480000       0.84030000       0.24260000
   109  H          0.27060000       0.68060000       0.76660000
   110  H          0.72940000       0.18060000       0.73340000
   111  H          0.72940000       0.31940000       0.23340000
   112  H          0.27060000       0.81940000       0.26660000
   113  H          0.20140000       0.59050000       0.69140000
   114  H          0.79860000       0.09050000       0.80860000
   115  H          0.79860000       0.40950000       0.30860000
   116  H          0.20140000       0.90950000       0.19140000
   117  C          0.61302000       0.74942180       0.68770160
   118  C          0.38698000       0.24942180       0.81229840
   119  C          0.38698000       0.25057820       0.31229840
   120  C          0.61302000       0.75057820       0.18770160
   121  H          0.55330000       0.72630000       0.62600000
   122  H          0.44670000       0.22630000       0.87400000
   123  H          0.44670000       0.27370000       0.37400000
   124  H          0.55330000       0.77370000       0.12600000
   125  C          0.65862000       0.85962000       0.67112000
   126  C          0.34138000       0.35962000       0.82888000
   127  C          0.34138000       0.14038000       0.32888000
   128  C          0.65862000       0.64038000       0.17112000
   129  H          0.72500000       0.88170000       0.72750000
   130  H          0.27500000       0.38170000       0.77250000
   131  H          0.27500000       0.11830000       0.27250000
   132  H          0.72500000       0.61830000       0.22750000
   133  H          0.59630000       0.91380000       0.65640000
   134  H          0.40370000       0.41380000       0.84360000
   135  H          0.40370000       0.08620000       0.34360000
   136  H          0.59630000       0.58620000       0.15640000
   137  H          0.68380000       0.85380000       0.61890000
   138  H          0.31620000       0.35380000       0.88110000
   139  H          0.31620000       0.14620000       0.38110000
   140  H          0.68380000       0.64620000       0.11890000
   141  C          0.70862000       0.66262000       0.71522000
   142  C          0.29138000       0.16262000       0.78478000
   143  C          0.29138000       0.33738000       0.28478000
   144  C          0.70862000       0.83738000       0.21522000
   145  H          0.74050000       0.65730000       0.66680000
   146  H          0.25950000       0.15730000       0.83320000
   147  H          0.25950000       0.34270000       0.33320000
   148  H          0.74050000       0.84270000       0.16680000
   149  H          0.67540000       0.59240000       0.72180000
   150  H          0.32460000       0.09240000       0.77820000
   151  H          0.32460000       0.40760000       0.27820000
   152  H          0.67540000       0.90760000       0.22180000
   153  H          0.77110000       0.68250000       0.77460000
   154  H          0.22890000       0.18250000       0.72540000
   155  H          0.22890000       0.31750000       0.22540000
   156  H          0.77110000       0.81750000       0.27460000
   157  C          0.61023190       0.85339180       0.86135150
   158  C          0.38976810       0.35339180       0.63864850
   159  C          0.38976810       0.14660820       0.13864850
   160  C          0.61023190       0.64660820       0.36135150
   161  H          0.61220000       0.92550000       0.83250000
   162  H          0.38780000       0.42550000       0.66750000
   163  H          0.38780000       0.07450000       0.16750000
   164  H          0.61220000       0.57450000       0.33250000
   165  C          0.73582000       0.81842000       0.91826190
   166  C          0.26418000       0.31842000       0.58173810
   167  C          0.26418000       0.18158000       0.08173810
   168  C          0.73582000       0.68158000       0.41826190
   169  H          0.77280000       0.87080000       0.96860000
   170  H          0.22720000       0.37080000       0.53140000
   171  H          0.22720000       0.12920000       0.03140000
   172  H          0.77280000       0.62920000       0.46860000
   173  H          0.77950000       0.81560000       0.87770000
   174  H          0.22050000       0.31560000       0.62230000
   175  H          0.22050000       0.18440000       0.12230000
   176  H          0.77950000       0.68440000       0.37770000
   177  H          0.73580000       0.74640000       0.94500000
   178  H          0.26420000       0.24640000       0.55500000
   179  H          0.26420000       0.25360000       0.05500000
   180  H          0.73580000       0.75360000       0.44500000
   181  C          0.54352000       0.86622000       0.92517160
   182  C          0.45648000       0.36622000       0.57482840
   183  C          0.45648000       0.13378000       0.07482840
   184  C          0.54352000       0.63378000       0.42517160
   185  H          0.53600000       0.79530000       0.95080000
   186  H          0.46400000       0.29530000       0.54920000
   187  H          0.46400000       0.20470000       0.04920000
   188  H          0.53600000       0.70470000       0.45080000
   189  H          0.46560000       0.89580000       0.88930000
   190  H          0.53440000       0.39580000       0.61070000
   191  H          0.53440000       0.10420000       0.11070000
   192  H          0.46560000       0.60420000       0.38930000
   193  H          0.58620000       0.91590000       0.97630000
   194  H          0.41380000       0.41590000       0.52370000
   195  H          0.41380000       0.08410000       0.02370000
   196  H          0.58620000       0.58410000       0.47630000
