data_CIYDAR
_symmetry_space_group_name_H-M    'P1'
_symmetry_Int_Tables_number       1
loop_
_symmetry_equiv_pos_site_id
_symmetry_equiv_pos_as_xyz
1 x,y,z
_cell_length_a                   6.9493
_cell_length_b                   7.3653
_cell_length_c                   14.0546
_cell_angle_alpha                94.6556
_cell_angle_beta                 97.9805
_cell_angle_gamma                112.0848
loop_
_atom_site_label
_atom_site_type_symbol
_atom_site_fract_x
_atom_site_fract_y
_atom_site_fract_z
     1  O          0.12600150       0.81270150       0.73277700
     2  O          0.87399850       0.18729850       0.26722300
     3  H          0.15830000       0.72920000       0.76441300
     4  H          0.84170000       0.27080000       0.23558700
     5  O          0.92238150       0.81239150       0.84322700
     6  O          0.07761850       0.18760850       0.15677300
     7  O          0.27851170       0.58923170       0.31548700
     8  O          0.72148830       0.41076830       0.68451300
     9  O          0.06212150       0.62122150       0.40632700
    10  O          0.93787850       0.37877850       0.59367300
    11  N          0.23851170       0.63637160       0.39415800
    12  N          0.76148830       0.36362840       0.60584200
    13  C         -0.00801810       0.86772180       0.77141900
    14  C          0.00801810       0.13227820       0.22858100
    15  C          0.92822000       0.01089190       0.71507100
    16  C          0.07178000      -0.01089190       0.28492900
    17  H          0.88630000       0.09500000       0.75940000
    18  H          0.11370000       0.90500000       0.24060000
    19  H          0.05070000       0.09840000       0.68950000
    20  H          0.94930000       0.90160000       0.31050000
    21  C          0.74639190       0.90096180       0.63162900
    22  C          0.25360810       0.09903820       0.36837100
    23  C          0.77972000       0.82616190       0.54357100
    24  C          0.22028000       0.17383810       0.45642900
    25  H          0.91770000       0.83690000       0.53710000
    26  H          0.08230000       0.16310000       0.46290000
    27  C          0.61412000       0.73644190       0.46559100
    28  C          0.38588000       0.26355810       0.53440900
    29  H          0.63730000       0.68760000       0.40540000
    30  H          0.36270000       0.31240000       0.59460000
    31  C          0.41382190       0.71982170       0.47778900
    32  C          0.58617810       0.28017830       0.52221100
    33  C          0.37332190       0.78394180       0.56504900
    34  C          0.62667810       0.21605820       0.43495100
    35  H          0.23350000       0.76530000       0.57230000
    36  H          0.76650000       0.23470000       0.42770000
    37  C          0.54192000       0.87637190       0.64199900
    38  C          0.45808000       0.12362810       0.35800100
    39  H          0.51740000       0.92320000       0.70230000
    40  H          0.48260000       0.07680000       0.29770000
    41  N          0.22911170       0.55660160       0.82385800
    42  N          0.77088830       0.44339840       0.17614200
    43  N          0.49472180       0.06921170       0.96875800
    44  N          0.50527820       0.93078830       0.03124200
    45  C          0.39102000       0.50573190       0.81118100
    46  C          0.60898000       0.49426810       0.18881900
    47  H          0.47770000       0.56740000       0.76680000
    48  H          0.52230000       0.43260000       0.23320000
    49  C          0.43722000       0.36652000       0.86029900
    50  C          0.56278000       0.63348000       0.13970100
    51  H          0.55190000       0.33250000       0.84890000
    52  H          0.44810000       0.66750000       0.15110000
    53  C          0.31222000       0.27729180       0.92673900
    54  C          0.68778000       0.72270820       0.07326100
    55  C          0.14482000       0.33078190       0.93979900
    56  C          0.85518000       0.66921810       0.06020100
    57  H          0.05690000       0.27360000       0.98450000
    58  H          0.94310000       0.72640000       0.01550000
    59  C          0.10792000       0.46902190       0.88648100
    60  C          0.89208000       0.53097810       0.11351900
    61  H         -0.00840000       0.50280000       0.89490000
    62  H          0.00840000       0.49720000       0.10510000
    63  C          0.35152000       0.13150190       0.98362900
    64  C          0.64848000       0.86849810       0.01637100
    65  H          0.26960000       0.08330000       0.03180000
    66  H          0.73040000       0.91670000       0.96820000
