data_CIZLUV
_symmetry_space_group_name_H-M    'P1'
_symmetry_Int_Tables_number       1
loop_
_symmetry_equiv_pos_site_id
_symmetry_equiv_pos_as_xyz
1 x,y,z
_cell_length_a                   4.36994
_cell_length_b                   29.6473
_cell_length_c                   13.374812
_cell_angle_alpha                90.0
_cell_angle_beta                 97.63001
_cell_angle_gamma                90.0
loop_
_atom_site_label
_atom_site_type_symbol
_atom_site_fract_x
_atom_site_fract_y
_atom_site_fract_z
     1  I          0.57465800       0.91037200       0.38267300
     2  I          0.92534200       0.41037200       0.11732700
     3  I          0.42534200       0.08962800       0.61732700
     4  I          0.07465800       0.58962800       0.88267300
     5  F          0.94921100       0.92244120       0.60263000
     6  F          0.55078900       0.42244120       0.89737000
     7  F          0.05078900       0.07755880       0.39737000
     8  F          0.44921100       0.57755880       0.10263000
     9  F          0.71681100       0.01012130       0.30903000
    10  F          0.78318900       0.51012130       0.19097000
    11  F          0.28318900       0.98987870       0.69097000
    12  F          0.21681100       0.48987870       0.80903000
    13  C         -0.02978700       0.96074160       0.55104000
    14  C          0.52978700       0.46074160       0.94896000
    15  C          0.02978700       0.03925840       0.44896000
    16  C          0.47021300       0.53925840       0.05104000
    17  C          0.82231100       0.96425150       0.45344000
    18  C          0.67768900       0.46425150       0.04656000
    19  C          0.17768900       0.03574850       0.54656000
    20  C          0.32231100       0.53574850       0.95344000
    21  C          0.85611300       0.00427170       0.40384000
    22  C          0.64388700       0.50427170       0.09616000
    23  C          0.14388700      -0.00427170       0.59616000
    24  C          0.35611300       0.49572830       0.90384000
    25  I          0.27112800       0.59309200       0.37766300
    26  I          0.22887200       0.09309200       0.12233700
    27  I          0.72887200       0.40690800       0.62233700
    28  I          0.77112800       0.90690800       0.87766300
    29  F          0.92682000       0.58408100       0.57223000
    30  F          0.57318000       0.08408100       0.92777000
    31  F          0.07318000       0.41591900       0.42777000
    32  F          0.42682000       0.91591900       0.07223000
    33  F          0.30358000       0.48575110       0.33862000
    34  F          0.19642000       0.98575110       0.16138000
    35  F          0.69642000       0.51424890       0.66138000
    36  F          0.80358000       0.01424890       0.83862000
    37  C         -0.03601100       0.54258160       0.53504000
    38  C          0.53601100       0.04258160       0.96496000
    39  C          0.03601100       0.45741840       0.46496000
    40  C          0.46398900       0.95741840       0.03504000
    41  C          0.11401100       0.53724160       0.45174000
    42  C          0.38598900       0.03724160       0.04826000
    43  C          0.88598900       0.46275840       0.54826000
    44  C          0.61401100       0.96275840       0.95174000
    45  C          0.15011100       0.49364170       0.41764000
    46  C          0.34988900       0.99364170       0.08236000
    47  C          0.84988900       0.50635830       0.58236000
    48  C          0.65011100       0.00635830       0.91764000
    49  N          0.22351000       0.83597140       0.26153000
    50  N          0.27649000       0.33597140       0.23847000
    51  N          0.77649000       0.16402860       0.73847000
    52  N          0.72351000       0.66402860       0.76153000
    53  N         -0.03499000       0.78495120       0.16043000
    54  N          0.53499000       0.28495120       0.33957000
    55  N          0.03499000       0.21504880       0.83957000
    56  N          0.46501000       0.71504880       0.66043000
    57  N          0.67339000       0.72956150       0.05523000
    58  N          0.82661000       0.22956150       0.44477000
    59  N          0.32661000       0.27043850       0.94477000
    60  N          0.17339000       0.77043850       0.55523000
    61  N          0.05509000       0.70690130       0.17313000
    62  N          0.44491000       0.20690130       0.32687000
    63  N          0.94491000       0.29309870       0.82687000
    64  N          0.55509000       0.79309870       0.67313000
    65  N          0.46001000       0.68341150       0.30413000
    66  N          0.03999000       0.18341150       0.19587000
    67  N          0.53999000       0.31658850       0.69587000
    68  N          0.96001000       0.81658850       0.80413000
    69  N          0.34839000       0.75656130       0.28433000
    70  N          0.15161000       0.25656130       0.21567000
    71  N          0.65161000       0.24343870       0.71567000
    72  N          0.84839000       0.74343870       0.78433000
    73  C          0.00691400       0.85702180       0.19064000
    74  C          0.49308600       0.35702180       0.30936000
    75  C         -0.00691400       0.14297820       0.80936000
    76  C          0.50691400       0.64297820       0.69064000
    77  H         -0.02490000       0.88800000       0.18640000
    78  H          0.52490000       0.38800000       0.31360000
    79  H          0.02490000       0.11200000       0.81360000
    80  H          0.47510000       0.61200000       0.68640000
    81  C          0.85018700       0.82670170       0.12914000
    82  C          0.64981300       0.32670170       0.37086000
    83  C          0.14981300       0.17329830       0.87086000
    84  C          0.35018700       0.67329830       0.62914000
    85  H          0.69540000       0.83270000       0.07610000
    86  H          0.80460000       0.33270000       0.42390000
    87  H          0.30460000       0.16730000       0.92390000
    88  H          0.19540000       0.66730000       0.57610000
    89  C          0.88799000       0.74184160       0.12663000
    90  C          0.61201000       0.24184160       0.37337000
    91  C          0.11201000       0.25815840       0.87337000
    92  C          0.38799000       0.75815840       0.62663000
    93  C          0.70508700       0.68277180       0.05464000
    94  C          0.79491300       0.18277180       0.44536000
    95  C          0.29491300       0.31722820       0.94536000
    96  C          0.20508700       0.81722820       0.55464000
    97  H          0.58220000       0.66380000       0.01080000
    98  H          0.91780000       0.16380000       0.48920000
    99  H          0.41780000       0.33620000       0.98920000
   100  H          0.08220000       0.83620000       0.51080000
   101  C          0.93248700       0.66824170       0.12424000
   102  C          0.56751300       0.16824170       0.37576000
   103  C          0.06751300       0.33175830       0.87576000
   104  C          0.43248700       0.83175830       0.62424000
   105  H         -0.00480000       0.63860000       0.13720000
   106  H          0.50480000       0.13860000       0.36280000
   107  H          0.00480000       0.36140000       0.86280000
   108  H          0.49520000       0.86140000       0.63720000
   109  C          0.28591100       0.71316150       0.25294000
   110  C          0.21408900       0.21316150       0.24706000
   111  C          0.71408900       0.28683850       0.74706000
   112  C          0.78591100       0.78683850       0.75294000
   113  C          0.64991200       0.70932000       0.37414000
   114  C          0.85008800       0.20932000       0.12586000
   115  C          0.35008800       0.29068000       0.62586000
   116  C          0.14991200       0.79068000       0.87414000
   117  H          0.80140000       0.69730000       0.42220000
   118  H          0.69860000       0.19730000       0.07780000
   119  H          0.19860000       0.30270000       0.57780000
   120  H          0.30140000       0.80270000       0.92220000
   121  C          0.58831200       0.75362000       0.36404000
   122  C          0.91168800       0.25362000       0.13596000
   123  C          0.41168800       0.24638000       0.63596000
   124  C          0.08831200       0.74638000       0.86404000
   125  H          0.68480000       0.77710000       0.40180000
   126  H          0.81520000       0.27710000       0.09820000
   127  H          0.31520000       0.22290000       0.59820000
   128  H          0.18480000       0.72290000       0.90180000
   129  C          0.19091100       0.79335150       0.24084000
   130  C          0.30908900       0.29335150       0.25916000
   131  C          0.80908900       0.20664850       0.75916000
   132  C          0.69091100       0.70664850       0.74084000
