data_CIZSEK
_symmetry_space_group_name_H-M    'P1'
_symmetry_Int_Tables_number       1
loop_
_symmetry_equiv_pos_site_id
_symmetry_equiv_pos_as_xyz
1 x,y,z
_cell_length_a                   11.098512
_cell_length_b                   20.3232
_cell_length_c                   12.410815
_cell_angle_alpha                90.0
_cell_angle_beta                 91.492
_cell_angle_gamma                90.0
loop_
_atom_site_label
_atom_site_type_symbol
_atom_site_fract_x
_atom_site_fract_y
_atom_site_fract_z
     1  I          0.72608616       0.14436380       0.52232613
     2  I          0.77391384       0.64436380       0.97767387
     3  I          0.27391384       0.85563620       0.47767387
     4  I          0.22608616       0.35563620       0.02232613
     5  I          0.81756215       0.30928080       0.48531013
     6  I          0.68243785       0.80928080       0.01468987
     7  I          0.18243785       0.69071920       0.51468987
     8  I          0.31756215       0.19071920       0.98531013
     9  I          0.81319915       0.56645770       0.23363812
    10  I          0.68680085       0.06645770       0.26636188
    11  I          0.18680085       0.43354230       0.76636188
    12  I          0.31319915       0.93354230       0.73363812
    13  I          0.85281216       0.56643180       0.72514613
    14  I          0.64718784       0.06643180       0.77485387
    15  I          0.14718784       0.43356820       0.27485387
    16  I          0.35281216       0.93356820       0.22514613
    17  F          0.81013160       0.41404800       0.29177120
    18  F          0.68986840       0.91404800       0.20822880
    19  F          0.18986840       0.58595200       0.70822880
    20  F          0.31013160       0.08595200       0.79177120
    21  F          0.85489150       0.61447700       0.47732120
    22  F          0.64510850       0.11447700       0.02267880
    23  F          0.14510850       0.38552300       0.52267880
    24  F          0.35489150       0.88552300       0.97732120
    25  F          0.84978170       0.41524800       0.66874120
    26  F          0.65021830       0.91524800       0.83125880
    27  F          0.15021830       0.58475200       0.33125880
    28  F          0.34978170       0.08475200       0.16874120
    29  C          0.83412000       0.41220120       0.47974190
    30  C          0.66588000       0.91220120       0.02025810
    31  C          0.16588000       0.58779880       0.52025810
    32  C          0.33412000       0.08779880       0.97974190
    33  C          0.82562000       0.44753120       0.38430190
    34  C          0.67438000       0.94753120       0.11569810
    35  C          0.17438000       0.55246880       0.61569810
    36  C          0.32562000       0.05246880       0.88430190
    37  C          0.83212000       0.51576120       0.38061180
    38  C          0.66788000       0.01576120       0.11938820
    39  C          0.16788000       0.48423880       0.61938820
    40  C          0.33212000       0.98423880       0.88061180
    41  C          0.84672000       0.54815120       0.47824190
    42  C          0.65328000       0.04815120       0.02175810
    43  C          0.15328000       0.45184880       0.52175810
    44  C          0.34672000       0.95184880       0.97824190
    45  C          0.85142000       0.51639120       0.57710180
    46  C          0.64858000       0.01639120       0.92289820
    47  C          0.14858000       0.48360880       0.42289820
    48  C          0.35142000       0.98360880       0.07710180
    49  C          0.84552000       0.44815120       0.57466190
    50  C          0.65448000       0.94815120       0.92533810
    51  C          0.15448000       0.55184880       0.42533810
    52  C          0.34552000       0.05184880       0.07466190
    53  N          0.37013190       0.23755100       0.37567160
    54  N          0.12986810       0.73755100       0.12432840
    55  N          0.62986810       0.76244900       0.62432840
    56  N          0.87013190       0.26244900       0.87567160
    57  C          0.37422000       0.18389130       0.46181190
    58  C          0.12578000       0.68389130       0.03818810
    59  C          0.62578000       0.81610870       0.53818810
    60  C          0.87422000       0.31610870       0.96181190
    61  H          0.45020000       0.18870000       0.50450000
    62  H          0.04980000       0.68870000      -0.00450000
    63  H          0.54980000       0.81130000       0.49550000
    64  H          0.95020000       0.31130000       0.00450000
    65  H          0.30700000       0.19150000       0.51120000
    66  H          0.19300000       0.69150000      -0.01120000
    67  H          0.69300000       0.80850000       0.48880000
    68  H          0.80700000       0.30850000       0.01120000
    69  C          0.36603000       0.11356140       0.42132000
    70  C          0.13397000       0.61356140       0.07868000
    71  C          0.63397000       0.88643860       0.57868000
    72  C          0.86603000       0.38643860       0.92132000
    73  H          0.43650000       0.10340000       0.37690000
    74  H          0.06350000       0.60340000       0.12310000
    75  H          0.56350000       0.89660000       0.62310000
    76  H          0.93650000       0.39660000       0.87690000
    77  H          0.29210000       0.10790000       0.37590000
    78  H          0.20790000       0.60790000       0.12410000
    79  H          0.70790000       0.89210000       0.62410000
    80  H          0.79210000       0.39210000       0.87590000
    81  C          0.36323000       0.06719160       0.51733000
    82  C          0.13677000       0.56719160       0.98267000
    83  C          0.63677000       0.93280840       0.48267000
    84  C          0.86323000       0.43280840       0.01733000
    85  H          0.35800000       0.02160000       0.49170000
    86  H          0.14200000       0.52160000       0.00830000
    87  H          0.64200000       0.97840000       0.50830000
    88  H          0.85800000       0.47840000      -0.00830000
    89  H          0.29290000       0.07720000       0.56060000
    90  H          0.20710000       0.57720000       0.93940000
    91  H          0.70710000       0.92280000       0.43940000
    92  H          0.79290000       0.42280000       0.06060000
    93  H          0.43690000       0.07280000       0.56160000
    94  H          0.06310000       0.57280000       0.93840000
    95  H          0.56310000       0.92720000       0.43840000
    96  H          0.93690000       0.42720000       0.06160000
    97  C          0.36682000       0.30389130       0.43182000
    98  C          0.13318000       0.80389130       0.06818000
    99  C          0.63318000       0.69610870       0.56818000
   100  C          0.86682000       0.19610870       0.93182000
   101  H          0.34340000       0.33770000       0.37790000
   102  H          0.15660000       0.83770000       0.12210000
   103  H          0.65660000       0.66230000       0.62210000
   104  H          0.84340000       0.16230000       0.87790000
   105  H          0.30310000       0.30260000       0.48620000
   106  H          0.19690000       0.80260000       0.01380000
   107  H          0.69690000       0.69740000       0.51380000
   108  H          0.80310000       0.19740000       0.98620000
   109  C          0.48353000       0.32516140       0.48742000
   110  C          0.01647000       0.82516140       0.01258000
   111  C          0.51647000       0.67483860       0.51258000
   112  C          0.98353000       0.17483860       0.98742000
   113  H          0.54590000       0.33230000       0.43300000
   114  H          0.95410000       0.83230000       0.06700000
   115  H          0.45410000       0.66770000       0.56700000
   116  H          0.04590000       0.16770000       0.93300000
   117  H          0.51220000       0.29010000       0.53720000
   118  H         -0.01220000       0.79010000       0.96280000
   119  H          0.48780000       0.70990000       0.46280000
   120  H          0.01220000       0.20990000       0.03720000
   121  C          0.46403000       0.38839160       0.54993000
   122  C          0.03597000       0.88839160       0.95007000
   123  C          0.53597000       0.61160840       0.45007000
   124  C          0.96403000       0.11160840       0.04993000
   125  H          0.53990000       0.40180000       0.58560000
   126  H          0.96010000       0.90180000       0.91440000
   127  H          0.46010000       0.59820000       0.41440000
   128  H          0.03990000       0.09820000       0.08560000
   129  H          0.40290000       0.38110000       0.60430000
   130  H          0.09710000       0.88110000       0.89570000
   131  H          0.59710000       0.61890000       0.39570000
   132  H          0.90290000       0.11890000       0.10430000
   133  H          0.43660000       0.42310000       0.50030000
   134  H          0.06340000       0.92310000      -0.00030000
   135  H          0.56340000       0.57690000       0.49970000
   136  H          0.93660000       0.07690000       0.00030000
   137  C          0.25772000       0.23130130       0.30290190
   138  C          0.24228000       0.73130130       0.19709810
   139  C          0.74228000       0.76869870       0.69709810
   140  C          0.75772000       0.26869870       0.80290190
   141  H          0.25710000       0.26820000       0.25090000
   142  H          0.24290000       0.76820000       0.24910000
   143  H          0.74290000       0.73180000       0.74910000
   144  H          0.75710000       0.23180000       0.75090000
   145  H          0.26390000       0.19000000       0.26100000
   146  H          0.23610000       0.69000000       0.23900000
   147  H          0.73610000       0.81000000       0.73900000
   148  H          0.76390000       0.31000000       0.76100000
   149  C          0.13832000       0.23104150       0.35982000
   150  C          0.36168000       0.73104150       0.14018000
   151  C          0.86168000       0.76895850       0.64018000
   152  C          0.63832000       0.26895850       0.85982000
   153  H          0.12890000       0.27230000       0.40100000
   154  H          0.37110000       0.77230000       0.09900000
   155  H          0.87110000       0.72770000       0.59900000
   156  H          0.62890000       0.22770000       0.90100000
   157  H          0.13540000       0.19360000       0.41070000
   158  H          0.36460000       0.69360000       0.08930000
   159  H          0.86460000       0.80640000       0.58930000
   160  H          0.63540000       0.30640000       0.91070000
   161  C          0.03733000       0.22482000       0.27443000
   162  C          0.46267000       0.72482000       0.22557000
   163  C          0.96267000       0.77518000       0.72557000
   164  C          0.53733000       0.27518000       0.77443000
   165  H          0.95920000       0.22460000       0.30950000
   166  H          0.54080000       0.72460000       0.19050000
   167  H          0.04080000       0.77540000       0.69050000
   168  H          0.45920000       0.27540000       0.80950000
   169  H          0.04720000       0.18370000       0.23430000
   170  H          0.45280000       0.68370000       0.26570000
   171  H          0.95280000       0.81630000       0.76570000
   172  H          0.54720000       0.31630000       0.73430000
   173  H          0.04070000       0.26220000       0.22470000
   174  H          0.45930000       0.76220000       0.27530000
   175  H          0.95930000       0.73780000       0.77530000
   176  H          0.54070000       0.23780000       0.72470000
   177  C          0.48052000       0.23065120       0.30690190
   178  C          0.01948000       0.73065120       0.19309810
   179  C          0.51948000       0.76934880       0.69309810
   180  C          0.98052000       0.26934880       0.80690190
   181  H          0.47510000       0.18820000       0.26780000
   182  H          0.02490000       0.68820000       0.23220000
   183  H          0.52490000       0.81180000       0.73220000
   184  H          0.97510000       0.31180000       0.76780000
   185  H          0.55280000       0.22870000       0.35520000
   186  H          0.94720000       0.72870000       0.14480000
   187  H          0.44720000       0.77130000       0.64480000
   188  H          0.05280000       0.27130000       0.85520000
   189  C          0.49823000       0.28530130       0.22522000
   190  C          0.00177000       0.78530130       0.27478000
   191  C          0.50177000       0.71469870       0.77478000
   192  C         -0.00177000       0.21469870       0.72522000
   193  H          0.43130000       0.28470000       0.17090000
   194  H          0.06870000       0.78470000       0.32910000
   195  H          0.56870000       0.71530000       0.82910000
   196  H          0.93130000       0.21530000       0.67090000
   197  H          0.49790000       0.32850000       0.26200000
   198  H          0.00210000       0.82850000       0.23800000
   199  H          0.50210000       0.67150000       0.73800000
   200  H         -0.00210000       0.17150000       0.76200000
   201  C          0.61703000       0.27571180       0.16993000
   202  C          0.88297000       0.77571180       0.33007000
   203  C          0.38297000       0.72428820       0.83007000
   204  C          0.11703000       0.22428820       0.66993000
   205  H          0.62810000       0.31100000       0.11730000
   206  H          0.87190000       0.81100000       0.38270000
   207  H          0.37190000       0.68900000       0.88270000
   208  H          0.12810000       0.18900000       0.61730000
   209  H          0.61670000       0.23310000       0.13290000
   210  H          0.88330000       0.73310000       0.36710000
   211  H          0.38330000       0.76690000       0.86710000
   212  H          0.11670000       0.26690000       0.63290000
   213  H          0.68310000       0.27680000       0.22380000
   214  H          0.81690000       0.77680000       0.27620000
   215  H          0.31690000       0.72320000       0.77620000
   216  H          0.18310000       0.22320000       0.72380000
   217  Cl         0.51091100       0.46523500       0.29832800
   218  Cl        -0.01091100       0.96523500       0.20167200
   219  Cl         0.48908900       0.53476500       0.70167200
   220  Cl         0.01091100       0.03476500       0.79832800
   221  Cl         0.45167130       0.55427600       0.12210110
   222  Cl         0.04832870       0.05427600       0.37789890
   223  Cl         0.54832870       0.44572400       0.87789890
   224  Cl         0.95167130       0.94572400       0.62210110
   225  C          0.49644000       0.47442000       0.15723000
   226  C          0.00356000       0.97442000       0.34277000
   227  C          0.50356000       0.52558000       0.84277000
   228  C         -0.00356000       0.02558000       0.65723000
   229  H          0.57460000       0.46450000       0.12410000
   230  H          0.92540000       0.96450000       0.37590000
   231  H          0.42540000       0.53550000       0.87590000
   232  H          0.07460000       0.03550000       0.62410000
   233  H          0.43620000       0.44260000       0.12850000
   234  H          0.06380000       0.94260000       0.37150000
   235  H          0.56380000       0.55740000       0.87150000
   236  H          0.93620000       0.05740000       0.62850000
