data_COCPEQ
_symmetry_space_group_name_H-M    'P1'
_symmetry_Int_Tables_number       1
loop_
_symmetry_equiv_pos_site_id
_symmetry_equiv_pos_as_xyz
1 x,y,z
_cell_length_a                   9.18715
_cell_length_b                   10.57416
_cell_length_c                   12.59607
_cell_angle_alpha                81.28101
_cell_angle_beta                 88.91801
_cell_angle_gamma                86.25601
loop_
_atom_site_label
_atom_site_type_symbol
_atom_site_fract_x
_atom_site_fract_y
_atom_site_fract_z
     1  N          0.81710100       0.68566900       0.13888700
     2  N          0.18289900       0.31433100       0.86111300
     3  H          0.88271700       0.74151400       0.10451200
     4  H          0.11728300       0.25848600       0.89548800
     5  H          0.85651600       0.60251500       0.14381100
     6  H          0.14348400       0.39748500       0.85618900
     7  H          0.73301900       0.69181500       0.10111300
     8  H          0.26698100       0.30818500       0.89888700
     9  C          0.78400120       0.71784110       0.24813900
    10  C          0.21599880       0.28215890       0.75186100
    11  H          0.71410000       0.65820000       0.28510000
    12  H          0.28590000       0.34180000       0.71490000
    13  H          0.73810000       0.80600000       0.24210000
    14  H          0.26190000       0.19400000       0.75790000
    15  C          0.89202120       0.75312120       0.42092900
    16  C          0.10797880       0.24687880       0.57907100
    17  C          0.92269120       0.70844120       0.31391900
    18  C          0.07730880       0.29155880       0.68608100
    19  H          0.96340000       0.61850000       0.32580000
    20  H          0.03660000       0.38150000       0.67420000
    21  H         -0.00390000       0.76170000       0.27360000
    22  H          0.00390000       0.23830000       0.72640000
    23  C          0.87967140       0.66601140       0.51435100
    24  C          0.12032860       0.33398860       0.48564900
    25  H          0.89310000       0.57670000       0.51150000
    26  H          0.10690000       0.42330000       0.48850000
    27  C          0.83965160       0.92466160       0.52513130
    28  C          0.16034840       0.07533840       0.47486870
    29  H          0.82560000       0.01380000       0.52850000
    30  H          0.17440000       0.98620000       0.47150000
    31  C          0.87210150       0.88323130       0.42739110
    32  C          0.12789850       0.11676870       0.57260890
    33  H          0.88080000       0.94430000       0.36440000
    34  H          0.11920000       0.05570000       0.63560000
    35  C          0.84790160       0.70813180       0.61195110
    36  C          0.15209840       0.29186820       0.38804890
    37  H          0.84010000       0.64750000       0.67530000
    38  H          0.15990000       0.35250000       0.32470000
    39  C          0.82765160       0.83684190       0.61744120
    40  C          0.17234840       0.16315810       0.38255880
    41  H          0.80550000       0.86530000       0.68430000
    42  H          0.19450000       0.13470000       0.31570000
    43  N          0.66461100       0.29779900       0.18708700
    44  N          0.33538900       0.70220100       0.81291300
    45  H          0.62601500       0.38131400       0.16351100
    46  H          0.37398500       0.61868600       0.83648900
    47  H          0.59511700       0.24271400       0.16921200
    48  H          0.40488300       0.75728600       0.83078800
    49  H          0.74681800       0.28191500       0.15251300
    50  H          0.25318200       0.71808500       0.84748700
    51  C          0.68968120       0.27747110       0.30489800
    52  C          0.31031880       0.72252890       0.69510200
    53  H          0.76880000       0.33060000       0.32130000
    54  H          0.23120000       0.66940000       0.67870000
    55  H          0.72060000       0.18640000       0.32930000
    56  H          0.27940000       0.81360000       0.67070000
    57  C          0.55126120       0.31326110       0.36453900
    58  C          0.44873880       0.68673890       0.63546100
    59  H          0.52160000       0.40490000       0.34150000
    60  H          0.47840000       0.59510000       0.65850000
    61  H          0.47150000       0.26160000       0.34690000
    62  H          0.52850000       0.73840000       0.65310000
    63  C          0.57620120       0.28957110       0.48416900
    64  C          0.42379880       0.71042890       0.51583100
    65  C          0.64383140       0.37857120       0.53364100
    66  C          0.35616860       0.62142880       0.46635900
    67  H          0.66830000       0.45750000       0.49270000
    68  H          0.33170000       0.54250000       0.50730000
    69  C          0.67608160       0.35353140       0.64224110
    70  C          0.32391840       0.64646860       0.35775890
    71  H          0.72230000       0.41520000       0.67520000
    72  H          0.27770000       0.58480000       0.32480000
    73  C          0.64115160       0.23896140       0.70268100
    74  C          0.35884840       0.76103860       0.29731900
    75  H          0.66470000       0.22120000       0.77680000
    76  H          0.33530000       0.77880000       0.22320000
    77  C          0.57190160       0.15052130       0.65481110
    78  C          0.42809840       0.84947870       0.34518890
    79  H          0.54680000       0.07210000       0.69630000
    80  H          0.45320000       0.92790000       0.30370000
    81  C          0.53873140       0.17598120       0.54592100
    82  C          0.46126860       0.82401880       0.45407900
    83  H          0.49010000       0.11510000       0.51370000
    84  H          0.50990000       0.88490000       0.48630000
    85  O          0.93534200       0.43655700       0.14288600
    86  O          0.06465800       0.56344300       0.85711400
    87  O          0.10792800       0.29612700       0.09617600
    88  O          0.89207200       0.70387300       0.90382400
    89  O          0.37907800       0.68782700       0.04099600
    90  O          0.62092200       0.31217300       0.95900400
    91  O          0.55078800       0.54874700       0.12144600
    92  O          0.44921200       0.45125300       0.87855400
    93  C          0.06236110       0.40726900       0.11513800
    94  C          0.93763890       0.59273100       0.88486200
    95  C          0.17214110       0.50716900       0.10122800
    96  C          0.82785890       0.49283100       0.89877200
    97  H          0.13850000       0.59500000       0.09010000
    98  H          0.86150000       0.40500000       0.90990000
    99  C          0.31427110       0.47761900       0.10379800
   100  C          0.68572890       0.52238100       0.89620200
   101  H          0.34770000       0.38970000       0.11550000
   102  H          0.65230000       0.61030000       0.88450000
   103  C          0.42434110       0.57696900       0.08902800
   104  C          0.57565890       0.42303100       0.91097200
   105  H          0.00120000       0.21841900       0.09971600
   106  H         -0.00120000       0.78158100       0.90028400
   107  H          0.47720000       0.76551800       0.02801600
   108  H          0.52280000       0.23448200       0.97198400
   109  O          0.57415800       0.83656700       0.02474600
   110  O          0.42584200       0.16343300       0.97525400
   111  O          0.55268800       0.86885700       0.84544400
   112  O          0.44731200       0.13114300       0.15455600
   113  O          0.90837800       0.15115700       0.10052600
   114  O          0.09162200       0.84884300       0.89947400
   115  O          0.95280800       0.15363700       0.92442400
   116  O          0.04719200       0.84636300       0.07557600
   117  C          0.61019110       0.88818900       0.92862200
   118  C          0.38980890       0.11181100       0.07137800
   119  C          0.72982110       0.97765900       0.92439200
   120  C          0.27017890       0.02234100       0.07560800
   121  H          0.78020000       0.00040000       0.85840000
   122  H          0.21980000      -0.00040000       0.14160000
   123  C          0.76772110       0.02616900       0.00980800
   124  C          0.23227890       0.97383100      -0.00980800
   125  H          0.71770000       0.00200000       0.07570000
   126  H          0.28230000      -0.00200000       0.92430000
   127  C          0.88527110       0.11701900       0.00728800
   128  C          0.11472890       0.88298100      -0.00728800
