data_COCVEY
_symmetry_space_group_name_H-M    'P1'
_symmetry_Int_Tables_number       1
loop_
_symmetry_equiv_pos_site_id
_symmetry_equiv_pos_as_xyz
1 x,y,z
_cell_length_a                   9.52395
_cell_length_b                   10.52866
_cell_length_c                   11.73147
_cell_angle_alpha                67.4406
_cell_angle_beta                 88.1484
_cell_angle_gamma                66.2725
loop_
_atom_site_label
_atom_site_type_symbol
_atom_site_fract_x
_atom_site_fract_y
_atom_site_fract_z
     1  P          0.86727900       0.27893900      -0.01060300
     2  P          0.13272100       0.72106100       0.01060300
     3  F          0.77347000       0.36453000       0.85166190
     4  F          0.22653000       0.63547000       0.14833810
     5  F          0.70907000       0.34983000       0.04052000
     6  F          0.29093000       0.65017000       0.95948000
     7  F          0.83327000       0.13472000       0.00972000
     8  F          0.16673000       0.86528000      -0.00972000
     9  F          0.95887000       0.19423000       0.12792000
    10  F          0.04113000       0.80577000       0.87208000
    11  F          0.02423000       0.20873000       0.93772000
    12  F          0.97577000       0.79127000       0.06228000
    13  F          0.90147000       0.42133000       0.97052000
    14  F          0.09853000       0.57867000       0.02948000
    15  P          0.72659900       0.13533900       0.52142800
    16  P          0.27340100       0.86466100       0.47857200
    17  F          0.83777000      -0.00303000       0.64312000
    18  F          0.16223000       0.00303000       0.35688000
    19  F          0.59547000       0.07342000       0.55132000
    20  F          0.40453000       0.92658000       0.44868000
    21  F          0.65377000       0.23573000       0.60012000
    22  F          0.34623000       0.76427000       0.39988000
    23  F          0.79787000       0.03593000       0.44172000
    24  F          0.20213000       0.96407000       0.55828000
    25  F          0.61667000       0.27352000       0.39792000
    26  F          0.38333000       0.72648000       0.60208000
    27  F          0.85747000       0.19763000       0.49192000
    28  F          0.14253000       0.80237000       0.50808000
    29  F          0.07563000       0.09553000       0.72742000
    30  F          0.92437000       0.90447000       0.27258000
    31  N          0.39963000       0.98597000       0.78982000
    32  N          0.60037000       0.01403000       0.21018000
    33  H          0.30340000       0.04550000       0.76210000
    34  H          0.69660000       0.95450000       0.23790000
    35  N          0.26443000       0.27473000       0.75682000
    36  N          0.73557000       0.72527000       0.24318000
    37  H          0.21960000       0.23020000       0.73360000
    38  H          0.78040000       0.76980000       0.26640000
    39  N          0.96977000       0.40683000       0.65522000
    40  N          0.03023000       0.59317000       0.34478000
    41  H          0.02940000       0.31180000       0.67960000
    42  H          0.97060000       0.68820000       0.32040000
    43  C          0.45204000       0.84356000       0.79713000
    44  C          0.54796000       0.15644000       0.20287000
    45  H          0.38460000       0.81170000       0.77280000
    46  H          0.61540000       0.18830000       0.22720000
    47  C          0.60504000       0.74506000       0.84073000
    48  C          0.39496000       0.25494000       0.15927000
    49  H          0.64300000       0.64650000       0.84560000
    50  H          0.35700000       0.35350000       0.15440000
    51  C          0.70164000       0.79666000       0.87723000
    52  C          0.29836000       0.20334000       0.12277000
    53  H          0.80540000       0.73160000       0.90780000
    54  H          0.19460000       0.26840000       0.09220000
    55  C          0.64464000       0.94436000       0.86833000
    56  C          0.35536000       0.05564000       0.13167000
    57  H          0.71010000       0.97840000       0.89230000
    58  H          0.28990000       0.02160000       0.10770000
    59  C          0.49004000       0.04104000       0.82363000
    60  C          0.50996000       0.95896000       0.17637000
    61  C          0.41274000       0.20144000       0.80823000
    62  C          0.58726000       0.79856000       0.19177000
    63  C          0.49034000       0.26874000       0.84553000
    64  C          0.50966000       0.73126000       0.15447000
    65  H          0.59450000       0.21510000       0.87970000
    66  H          0.40550000       0.78490000       0.12030000
    67  C          0.40864000       0.41834000       0.83073000
    68  C          0.59136000       0.58166000       0.16927000
    69  H          0.45720000       0.46650000       0.85530000
    70  H          0.54280000       0.53350000       0.14470000
    71  C          0.25414000       0.49464000       0.77883000
    72  C          0.74586000       0.50536000       0.22117000
    73  H          0.19670000       0.59450000       0.76880000
    74  H          0.80330000       0.40550000       0.23120000
    75  C          0.18644000       0.41953000       0.74193000
    76  C          0.81356000       0.58047000       0.25807000
    77  C          0.02534000       0.49523000       0.67943000
    78  C          0.97466000       0.50477000       0.32057000
    79  C          0.92766000       0.64824000       0.64043000
    80  C          0.07234000       0.35176000       0.35957000
    81  H          0.96120000       0.71230000       0.65620000
    82  H          0.03880000       0.28770000       0.34380000
    83  C          0.78036000       0.70514000       0.57813000
    84  C          0.21964000       0.29486000       0.42187000
    85  H          0.71510000       0.80760000       0.55220000
    86  H          0.28490000       0.19240000       0.44780000
    87  C          0.72916000       0.61054000       0.55383000
    88  C          0.27084000       0.38946000       0.44617000
    89  H          0.63110000       0.64880000       0.51040000
    90  H          0.36890000       0.35120000       0.48960000
    91  C          0.82746000       0.45844000       0.59573000
    92  C          0.17254000       0.54156000       0.40427000
    93  H          0.79530000       0.39190000       0.58260000
    94  H          0.20470000       0.60810000       0.41740000
