data_COFPAO10
_symmetry_space_group_name_H-M    'P1'
_symmetry_Int_Tables_number       1
loop_
_symmetry_equiv_pos_site_id
_symmetry_equiv_pos_as_xyz
1 x,y,z
_cell_length_a                   7.2566
_cell_length_b                   13.6636
_cell_length_c                   16.3416
_cell_angle_alpha                75.224
_cell_angle_beta                 80.187
_cell_angle_gamma                82.575
loop_
_atom_site_label
_atom_site_type_symbol
_atom_site_fract_x
_atom_site_fract_y
_atom_site_fract_z
     1  Cl         0.58086000       0.22502000       0.02882000
     2  Cl         0.41914000       0.77498000       0.97118000
     3  Cl         0.68296000       0.41762000       0.89058000
     4  Cl         0.31704000       0.58238000       0.10942000
     5  Cl         0.81666000       0.59392000       0.12952000
     6  Cl         0.18334000       0.40608000       0.87048000
     7  Cl         0.77625000       0.39492000       0.26812000
     8  Cl         0.22375000       0.60508000       0.73188000
     9  Cl         0.30796000       0.31642000       0.24452000
    10  Cl         0.69204000       0.68358000       0.75548000
    11  Cl         0.13956000       0.27783000       0.43482000
    12  Cl         0.86044000       0.72217000       0.56518000
    13  Cl         0.36785000       0.14693000       0.57372000
    14  Cl         0.63215000       0.85307000       0.42628000
    15  Cl         0.77195000       0.05553000       0.52272000
    16  Cl         0.22805000       0.94447000       0.47728000
    17  Cl         0.95046000       0.09762000       0.33382000
    18  Cl         0.04954000       0.90238000       0.66618000
    19  Cl         0.42976000       0.04412000       0.24312000
    20  Cl         0.57024000       0.95588000       0.75688000
    21  Cl         0.60355000       0.83918000       0.20532000
    22  Cl         0.39645000       0.16082000       0.79468000
    23  Cl         0.01365000       0.81728000       0.11752000
    24  Cl        -0.01365000       0.18272000       0.88248000
    25  Cl         0.24824000       0.00372000       0.05912000
    26  Cl         0.75176000      -0.00372000       0.94088000
    27  Cl         0.08414000       0.20732000       0.10052000
    28  Cl         0.91586000       0.79268000       0.89948000
    29  O          0.79649000       0.57255000       0.95915000
    30  O          0.20351000       0.42745000       0.04085000
    31  C          0.69418800       0.21367000       0.20206000
    32  C          0.30581200       0.78633000       0.79794000
    33  C          0.69948800       0.30657000       0.14516000
    34  C          0.30051200       0.69343000       0.85484000
    35  C          0.67948800       0.31817000       0.05637000
    36  C          0.32051200       0.68183000       0.94363000
    37  C          0.71088700       0.40398000      -0.00477000
    38  C          0.28911300       0.59602000       0.00477000
    39  C          0.76348600       0.49448000       0.01479000
    40  C          0.23651400       0.50552000       0.98521000
    41  C          0.76708700       0.48718000       0.10529000
    42  C          0.23291300       0.51282000       0.89471000
    43  C          0.73678700       0.39898000       0.16547000
    44  C          0.26321300       0.60102000       0.83453000
    45  C          0.62118700       0.20137000       0.29546000
    46  C          0.37881300       0.79863000       0.70454000
    47  C          0.44078700       0.24367000       0.32027000
    48  C          0.55921300       0.75633000       0.67973000
    49  C          0.36378600       0.22648000       0.40567000
    50  C          0.63621400       0.77352000       0.59433000
    51  C          0.46378400       0.16899000       0.46777000
    52  C          0.53621600       0.83101000       0.53223000
    53  C          0.64228300       0.12658000       0.44486000
    54  C          0.35771700       0.87342000       0.55514000
    55  C          0.72108600       0.14427000       0.35976000
    56  C          0.27891400       0.85573000       0.64024000
    57  C          0.76318700       0.11767000       0.17516000
    58  C          0.23681300       0.88233000       0.82484000
    59  C          0.66058600       0.03367000       0.19736000
    60  C          0.33941400       0.96633000       0.80264000
    61  C          0.73528400       0.94183000       0.17936000
    62  C          0.26471600       0.05817000       0.82064000
    63  C          0.91578300       0.93083000       0.13927000
    64  C          0.08421700       0.06917000       0.86073000
    65  C          0.02211400       0.01468000       0.11326000
    66  C          0.97788600       0.98532000       0.88674000
    67  C          0.94538600       0.10697000       0.13136000
    68  C          0.05461400       0.89303000       0.86864000
    69  Cl         0.57001100       0.39986000       0.69095000
    70  Cl         0.42998900       0.60014000       0.30905000
    71  Cl         0.81511200       0.24416000       0.64636000
    72  Cl         0.18488800       0.75584000       0.35364000
    73  Cl         0.95961500       0.41318000       0.64788000
    74  Cl         0.04038500       0.58682000       0.35212000
    75  Cl         0.74961300       0.41271000       0.52335000
    76  Cl         0.25038700       0.58729000       0.47665000
    77  C          0.75503700       0.36971700       0.62971400
    78  C          0.24496300       0.63028300       0.37028600
