data_COKNUM
_symmetry_space_group_name_H-M    'P1'
_symmetry_Int_Tables_number       1
loop_
_symmetry_equiv_pos_site_id
_symmetry_equiv_pos_as_xyz
1 x,y,z
_cell_length_a                   5.24827
_cell_length_b                   8.692514
_cell_length_c                   13.2892
_cell_angle_alpha                84.3167
_cell_angle_beta                 86.2457
_cell_angle_gamma                88.2418
loop_
_atom_site_label
_atom_site_type_symbol
_atom_site_fract_x
_atom_site_fract_y
_atom_site_fract_z
     1  I          0.07045300       0.55927016       0.27410211
     2  I          0.92954700       0.44072984       0.72589789
     3  F          0.71577000       0.48764190       0.12690130
     4  F          0.28423000       0.51235810       0.87309870
     5  F          0.69407000       0.32532000       0.26248130
     6  F          0.30593000       0.67468000       0.73751870
     7  F          0.20463000       0.36934180       0.07989120
     8  F          0.79537000       0.63065820       0.92010880
     9  F          0.15493000       0.20173170       0.21245120
    10  F          0.84507000       0.79826830       0.78754880
    11  F          0.79597000       0.26828180      -0.00121120
    12  F          0.20403000       0.73171820       0.00121120
    13  F          0.69927000       0.11529190       0.13436120
    14  F          0.30073000       0.88470810       0.86563880
    15  F          0.26993000       0.11372000       0.98439840
    16  F          0.73007000       0.88628000       0.01560160
    17  F          0.14325000       0.95798000       0.11444140
    18  F          0.85675000       0.04202000       0.88555860
    19  C          0.85676000       0.40583000       0.19511170
    20  C          0.14324000       0.59417000       0.80488830
    21  C          0.03154000       0.28993000       0.14080160
    22  C          0.96846000       0.71007000       0.85919840
    23  C          0.89346000       0.18213000       0.07647160
    24  C          0.10654000       0.81787000       0.92352840
    25  C          0.06534000       0.05143000       0.03500180
    26  C          0.93466000       0.94857000       0.96499820
    27  N          0.94874000       0.94232000       0.52342150
    28  N          0.05126000       0.05768000       0.47657850
    29  C          0.75564000       0.87993000       0.46840170
    30  C          0.24436000       0.12007000       0.53159830
    31  C          0.61145000       0.76463000       0.52176180
    32  C          0.38855000       0.23537000       0.47823820
    33  C          0.41985000       0.70143000       0.47352000
    34  C          0.58015000       0.29857000       0.52648000
    35  N          0.36994000       0.74522000       0.37761170
    36  N          0.63006000       0.25478000       0.62238830
    37  C          0.51355000       0.85583000       0.32688190
    38  C          0.48645000       0.14417000       0.67311810
    39  C          0.70755000       0.92643000       0.36891190
    40  C          0.29245000       0.07357000       0.63108810
    41  H          0.63760000       0.72840000       0.59130000
    42  H          0.36240000       0.27160000       0.40870000
    43  H          0.32170000       0.62740000       0.50830000
    44  H          0.67830000       0.37260000       0.49170000
    45  H          0.47470000       0.88340000       0.25930000
    46  H          0.52530000       0.11660000       0.74070000
    47  H          0.78960000      -0.00270000       0.33120000
    48  H          0.21040000       0.00270000       0.66880000
