data_COLLUM
_symmetry_space_group_name_H-M    'P1'
_symmetry_Int_Tables_number       1
loop_
_symmetry_equiv_pos_site_id
_symmetry_equiv_pos_as_xyz
1 x,y,z
_cell_length_a                   8.6083
_cell_length_b                   10.2214
_cell_length_c                   13.2975
_cell_angle_alpha                97.853
_cell_angle_beta                 96.793
_cell_angle_gamma                113.644
loop_
_atom_site_label
_atom_site_type_symbol
_atom_site_fract_x
_atom_site_fract_y
_atom_site_fract_z
     1  I          0.66417150       0.42374130       0.71356900
     2  I          0.33582850       0.57625870       0.28643100
     3  C          0.60661800       0.28381700       0.81208700
     4  C          0.39338200       0.71618300       0.18791300
     5  C          0.57231800       0.19741900       0.86158600
     6  C          0.42768200       0.80258100       0.13841400
     7  C          0.53681700       0.09811700       0.93268700
     8  C          0.46318300       0.90188300       0.06731300
     9  C          0.46720000       0.12161800       0.01821300
    10  C          0.53280000       0.87838200       0.98178700
    11  H          0.44230000       0.20420000       0.03110000
    12  H          0.55770000       0.79580000       0.96890000
    13  C          0.43261800       0.02391800       0.08611200
    14  C          0.56738200       0.97608200       0.91388800
    15  H          0.38770000       0.04250000       0.14560000
    16  H          0.61230000       0.95750000       0.85440000
    17  O          0.91941300      -0.01478900       0.77852000
    18  O          0.08058700       0.01478900       0.22148000
    19  N          0.22981900       0.36441700       0.42258800
    20  N          0.77018100       0.63558300       0.57741200
    21  C          0.18020000       0.30220000       0.48248500
    22  C          0.81980000       0.69780000       0.51751500
    23  C          0.11420000       0.21861700       0.55798800
    24  C          0.88580000       0.78138300       0.44201200
    25  C          0.19451900       0.13501700       0.59378800
    26  C          0.80548100       0.86498300       0.40621200
    27  H          0.29160000       0.13320000       0.56730000
    28  H          0.70840000       0.86680000       0.43270000
    29  C          0.13320000       0.05401600       0.66848700
    30  C          0.86680000       0.94598400       0.33151300
    31  H          0.18710000      -0.00350000       0.69250000
    32  H          0.81290000       0.00350000       0.30750000
    33  C         -0.00680000       0.05781700       0.70728800
    34  C          0.00680000       0.94218300       0.29271200
    35  C          0.91281900       0.13941500       0.66908800
    36  C          0.08718100       0.86058500       0.33091200
    37  H          0.81330000       0.13910000       0.69340000
    38  H          0.18670000       0.86090000       0.30660000
    39  C         -0.02618100       0.21901500       0.59788800
    40  C          0.02618100       0.78098500       0.40211200
    41  H          0.91890000       0.27660000       0.57490000
    42  H          0.08110000       0.72340000       0.42510000
    43  C         -0.00588100       0.89791600       0.82048700
    44  C          0.00588100       0.10208400       0.17951300
    45  H          0.11520000       0.95890000       0.85610000
    46  H          0.88480000       0.04110000       0.14390000
    47  H         -0.00740000       0.82200000       0.76500000
    48  H          0.00740000       0.17800000       0.23500000
    49  C          0.88251900       0.82761600       0.89768800
    50  C          0.11748100       0.17238400       0.10231200
    51  H          0.87530000       0.90620000       0.94670000
    52  H          0.12470000       0.09380000       0.05330000
    53  H          0.76410000       0.76430000       0.85880000
    54  H          0.23590000       0.23570000       0.14120000
    55  C          0.94281900       0.73771600       0.96008800
    56  C          0.05718100       0.26228400       0.03991200
    57  H          0.05790000       0.80060000       0.00340000
    58  H          0.94210000       0.19940000      -0.00340000
    59  H          0.95380000       0.65980000       0.91260000
    60  H          0.04620000       0.34020000       0.08740000
    61  C          0.81621900       0.66971600       0.02891200
    62  C          0.18378100       0.33028400       0.97108800
    63  H          0.80910000       0.74840000       0.07780000
    64  H          0.19090000       0.25160000       0.92220000
    65  H          0.70020000       0.61120000       0.98540000
    66  H          0.29980000       0.38880000       0.01460000
    67  C          0.86520000       0.57451700       0.08881200
    68  C          0.13480000       0.42548300       0.91118800
    69  H         -0.01590000       0.63120000       0.12930000
    70  H          0.01590000       0.36880000       0.87070000
    71  H          0.86520000       0.49210000       0.04010000
    72  H          0.13480000       0.50790000       0.95990000
    73  C          0.74421900       0.51561600       0.16121200
    74  C          0.25578100       0.48438400       0.83878800
    75  H          0.62560000       0.46360000       0.11980000
    76  H          0.37440000       0.53640000       0.88020000
    77  H          0.74720000       0.59950000       0.20970000
    78  H          0.25280000       0.40050000       0.79030000
    79  C          0.77711800       0.41301600       0.22491200
    80  C          0.22288200       0.58698400       0.77508800
    81  H          0.77780000       0.33050000       0.17670000
    82  H          0.22220000       0.66950000       0.82330000
    83  H          0.89410000       0.46600000       0.26830000
    84  H          0.10590000       0.53400000       0.73170000
    85  C          0.65381900       0.35231600       0.29321200
    86  C          0.34618100       0.64768400       0.70678800
    87  H          0.53510000       0.30600000       0.25160000
    88  H          0.46490000       0.69400000       0.74840000
    89  H          0.66090000       0.43330000       0.34650000
    90  H          0.33910000       0.56670000       0.65350000
    91  C          0.68520000       0.24291800       0.34561400
    92  C          0.31480000       0.75708200       0.65438600
    93  H          0.80120000       0.29010000       0.39000000
    94  H          0.19880000       0.70990000       0.61000000
    95  H          0.68260000       0.16380000       0.29260000
    96  H          0.31740000       0.83620000       0.70740000
    97  C          0.55020000       0.17641900       0.41231400
    98  C          0.44980000       0.82358100       0.58768600
    99  H          0.53740000       0.25460000       0.45690000
   100  H          0.46260000       0.74540000       0.54310000
   101  H          0.58860000       0.12020000       0.45520000
   102  H          0.41140000       0.87980000       0.54480000
   103  H          0.43890000       0.11190000       0.36730000
   104  H          0.56110000       0.88810000       0.63270000
