data_CONWOT
_symmetry_space_group_name_H-M    'P1'
_symmetry_Int_Tables_number       1
loop_
_symmetry_equiv_pos_site_id
_symmetry_equiv_pos_as_xyz
1 x,y,z
_cell_length_a                   6.7046
_cell_length_b                   7.7336
_cell_length_c                   9.0277
_cell_angle_alpha                77.263
_cell_angle_beta                 72.404
_cell_angle_gamma                87.994
loop_
_atom_site_label
_atom_site_type_symbol
_atom_site_fract_x
_atom_site_fract_y
_atom_site_fract_z
     1  Br         0.18638100       0.53464800       0.78995700
     2  Br         0.81361900       0.46535200       0.21004300
     3  Br         0.72658100       0.31779800       0.86603700
     4  Br         0.27341900       0.68220200       0.13396300
     5  O          0.35177000       0.70096000       0.43745000
     6  O          0.64823000       0.29904000       0.56255000
     7  C          0.19411000       0.60588000       0.46566000
     8  C          0.80589000       0.39412000       0.53434000
     9  C          0.07349000       0.51578000       0.62827000
    10  C          0.92651000       0.48422000       0.37173000
    11  C          0.89231000       0.42018000       0.65827000
    12  C          0.10769000       0.57982000       0.34173000
    13  N          0.64471000       0.79739000       0.57498000
    14  N          0.35529000       0.20261000       0.42502000
    15  C          0.82031000       0.89899000       0.53718000
    16  C          0.17969000       0.10101000       0.46282000
    17  C          0.89711100       0.91958000       0.66257000
    18  C          0.10288900       0.08042000       0.33743000
    19  C          0.08231100       0.01958000       0.62317000
    20  C          0.91768900       0.98042000       0.37683000
    21  C          0.76901200       0.84349000       0.83428000
    22  C          0.23098800       0.15651000       0.16572000
    23  H          0.67630000       0.93130000       0.87420000
    24  H          0.32370000       0.06870000       0.12580000
    25  H          0.86130000       0.80980000       0.89800000
    26  H          0.13870000       0.19020000       0.10200000
    27  H          0.68850000       0.74110000       0.83850000
    28  H          0.31150000       0.25890000       0.16150000
    29  C          0.18451100       0.03979000       0.74858000
    30  C          0.81548900       0.96021000       0.25142000
    31  H          0.13030000       0.14110000       0.79090000
    32  H          0.86970000       0.85890000       0.20910000
    33  H          0.33330000       0.05560000       0.70060000
    34  H          0.66670000       0.94440000       0.29940000
    35  H          0.15410000       0.93520000       0.83290000
    36  H          0.84590000       0.06480000       0.16710000
    37  H          0.56180000       0.83560000       0.53360000
    38  H          0.43820000       0.16440000       0.46640000
    39  H          0.55312000       0.74890000       0.67290000
    40  H          0.44688000       0.25110000       0.32710000
    41  H          0.43980000       0.16560000       0.46760000
    42  H          0.56020000       0.83440000       0.53240000
    43  H          0.44712000       0.25290000       0.32890000
    44  H          0.55288000       0.74710000       0.67110000
