data_CORPOS
_symmetry_space_group_name_H-M    'P1'
_symmetry_Int_Tables_number       1
loop_
_symmetry_equiv_pos_site_id
_symmetry_equiv_pos_as_xyz
1 x,y,z
_cell_length_a                   12.963111
_cell_length_b                   11.38025
_cell_length_c                   13.167511
_cell_angle_alpha                90.0
_cell_angle_beta                 117.6246
_cell_angle_gamma                90.0
loop_
_atom_site_label
_atom_site_type_symbol
_atom_site_fract_x
_atom_site_fract_y
_atom_site_fract_z
     1  I          0.67827200       0.09634200       0.41894200
     2  I          0.32172800       0.59634200       0.08105800
     3  I          0.32172800       0.90365800       0.58105800
     4  I          0.67827200       0.40365800       0.91894200
     5  I          0.91260200       0.16703200       0.50892200
     6  I          0.08739800       0.66703200      -0.00892200
     7  I          0.08739800       0.83296800       0.49107800
     8  I          0.91260200       0.33296800       0.00892200
     9  I          0.16454200       0.24311200       0.59403200
    10  I          0.83545800       0.74311200       0.90596800
    11  I          0.83545800       0.75688800       0.40596800
    12  I          0.16454200       0.25688800       0.09403200
    13  Cl         0.39992600       0.98349600       0.32707600
    14  Cl         0.60007400       0.48349600       0.17292400
    15  Cl         0.60007400       0.01650400       0.67292400
    16  Cl         0.39992600       0.51650400       0.82707600
    17  S          0.78491600       0.37523600       0.66898600
    18  S          0.21508400       0.87523600       0.83101400
    19  S          0.21508400       0.62476400       0.33101400
    20  S          0.78491600       0.12476400       0.16898600
    21  S          0.68199600       0.41735600       0.50222600
    22  S          0.31800400       0.91735600      -0.00222600
    23  S          0.31800400       0.58264400       0.49777400
    24  S          0.68199600       0.08264400       0.00222600
    25  N          0.14412000       0.49962000       0.75612000
    26  N          0.85588000      -0.00038000       0.74388000
    27  N          0.85588000       0.50038000       0.24388000
    28  N          0.14412000       0.00038000       0.25612000
    29  H          0.21130000       0.51530000       0.77330000
    30  H          0.78870000       0.01530000       0.72670000
    31  H          0.78870000       0.48470000       0.22670000
    32  H          0.21130000       0.98470000       0.27330000
    33  N          0.54172000       0.77952000       0.48712000
    34  N          0.45828000       0.27952000       0.01288000
    35  N          0.45828000       0.22048000       0.51288000
    36  N          0.54172000       0.72048000       0.98712000
    37  H          0.51630000       0.84730000       0.47730000
    38  H          0.48370000       0.34730000       0.02270000
    39  H          0.48370000       0.15270000       0.52270000
    40  H          0.51630000       0.65270000       0.97730000
    41  C          0.92352000       0.42722000       0.69672000
    42  C          0.07648000       0.92722000       0.80328000
    43  C          0.07648000       0.57278000       0.30328000
    44  C          0.92352000       0.07278000       0.19672000
    45  C          0.01753000       0.38003000       0.79122000
    46  C          0.98247000       0.88003000       0.70878000
    47  C          0.98247000       0.61997000       0.20878000
    48  C          0.01753000       0.11997000       0.29122000
    49  H          0.00565800       0.32124300       0.83603300
    50  H         -0.00565800       0.82124300       0.66396700
    51  H         -0.00565800       0.67875700       0.16396700
    52  H          0.00565800       0.17875700       0.33603300
    53  C          0.12763000       0.41833000       0.81982000
    54  C          0.87237000       0.91833000       0.68018000
    55  C          0.87237000       0.58167000       0.18018000
    56  C          0.12763000       0.08167000       0.31982000
    57  H          0.19233900       0.38689600       0.88512100
    58  H          0.80766100       0.88689600       0.61487900
    59  H          0.80766100       0.61310400       0.11487900
    60  H          0.19233900       0.11310400       0.38512100
    61  C          0.94333000       0.51173000       0.63123000
    62  C          0.05667000       0.01173000       0.86877000
    63  C          0.05667000       0.48827000       0.36877000
    64  C          0.94333000      -0.01173000       0.13123000
    65  H          0.88033200       0.54512300       0.56566500
    66  H          0.11966800       0.04512300       0.93433500
    67  H          0.11966800       0.45487700       0.43433500
    68  H          0.88033200       0.95487700       0.06566500
    69  C          0.05613000       0.54573000       0.66373000
    70  C          0.94387000       0.04573000       0.83627000
    71  C          0.94387000       0.45427000       0.33627000
    72  C          0.05613000       0.95427000       0.16373000
    73  H          0.07134500       0.60281300       0.61973500
    74  H          0.92865500       0.10281300       0.88026500
    75  H          0.92865500       0.39718700       0.38026500
    76  H          0.07134500       0.89718700       0.11973500
    77  C          0.62982000       0.55952000       0.50522000
    78  C          0.37018000       0.05952000      -0.00522000
    79  C          0.37018000       0.44048000       0.49478000
    80  C          0.62982000       0.94048000       0.00522000
    81  C          0.55993000       0.60793000       0.39763000
    82  C          0.44007000       0.10793000       0.10237000
    83  C          0.44007000       0.39207000       0.60237000
    84  C          0.55993000       0.89207000       0.89763000
    85  H          0.54225300       0.56451300       0.32989400
    86  H          0.45774700       0.06451300       0.17010600
    87  H          0.45774700       0.43548700       0.67010600
    88  H          0.54225300       0.93548700       0.82989400
    89  C          0.65212000       0.62353000       0.60302000
    90  C          0.34788000       0.12353000       0.89698000
    91  C          0.34788000       0.37647000       0.39698000
    92  C          0.65212000       0.87647000       0.10302000
    93  H          0.69846100       0.59115800       0.67696400
    94  H          0.30153900       0.09115800       0.82303600
    95  H          0.30153900       0.40884200       0.32303600
    96  H          0.69846100       0.90884200       0.17696400
    97  C          0.60633000       0.73403000       0.59113000
    98  C          0.39367000       0.23403000       0.90887000
    99  C          0.39367000       0.26597000       0.40887000
   100  C          0.60633000       0.76597000       0.09113000
   101  H          0.62069200       0.77868400       0.65725800
   102  H          0.37930800       0.27868400       0.84274200
   103  H          0.37930800       0.22131600       0.34274200
   104  H          0.62069200       0.72131600       0.15725800
   105  C          0.51703000       0.71963000       0.39123000
   106  C          0.48297000       0.21963000       0.10877000
   107  C          0.48297000       0.28037000       0.60877000
   108  C          0.51703000       0.78037000       0.89123000
   109  H          0.46974000       0.75421000       0.31856500
   110  H          0.53026000       0.25421000       0.18143500
   111  H          0.53026000       0.24579000       0.68143500
   112  H          0.46974000       0.74579000       0.81856500
