data_CORPIJ
_symmetry_space_group_name_H-M    'P1'
_symmetry_Int_Tables_number       1
loop_
_symmetry_equiv_pos_site_id
_symmetry_equiv_pos_as_xyz
1 x,y,z
_cell_length_a                   7.57143
_cell_length_b                   7.57143
_cell_length_c                   26.889818
_cell_angle_alpha                90.0
_cell_angle_beta                 90.0
_cell_angle_gamma                90.0
loop_
_atom_site_label
_atom_site_type_symbol
_atom_site_fract_x
_atom_site_fract_y
_atom_site_fract_z
     1  C          0.24984000      -0.01756000       0.82362130
     2  C          0.75016000       0.01756000       0.32362130
     3  C          0.01756000       0.24984000       0.57362130
     4  C         -0.01756000       0.75016000       0.07362130
     5  C          0.16745000       0.97374000       0.87387130
     6  C          0.83255000       0.02626000       0.37387130
     7  C          0.02626000       0.16745000       0.62387130
     8  C          0.97374000       0.83255000       0.12387130
     9  C          0.00745000       0.03184000       0.88299140
    10  C         -0.00745000       0.96816000       0.38299140
    11  C          0.96816000       0.00745000       0.63299140
    12  C          0.03184000      -0.00745000       0.13299140
    13  H          0.96050000       0.02250000       0.91560000
    14  H          0.03950000       0.97750000       0.41560000
    15  H          0.97750000       0.96050000       0.66560000
    16  H          0.02250000       0.03950000       0.16560000
    17  C          0.89975000       0.11105000       0.84337160
    18  C          0.10025000       0.88895000       0.34337160
    19  C          0.88895000       0.89975000       0.59337160
    20  C          0.11105000       0.10025000       0.09337160
    21  C          0.97895000       0.12245000       0.79232150
    22  C          0.02105000       0.87755000       0.29232150
    23  C          0.87755000       0.97895000       0.54232150
    24  C          0.12245000       0.02105000       0.04232150
    25  H          0.91310000       0.17270000       0.76580000
    26  H          0.08690000       0.82730000       0.26580000
    27  H          0.82730000       0.91310000       0.51580000
    28  H          0.17270000       0.08690000       0.01580000
    29  C          0.14075000       0.06235000       0.78428140
    30  C          0.85925000       0.93765000       0.28428140
    31  C          0.93765000       0.14075000       0.53428140
    32  C          0.06235000       0.85925000       0.03428140
    33  H          0.18850000       0.07110000       0.75170000
    34  H          0.81150000       0.92890000       0.25170000
    35  H          0.92890000       0.18850000       0.50170000
    36  H          0.07110000       0.81150000       0.00170000
    37  O          0.39513000       0.92614000       0.81567110
    38  O          0.60487000       0.07386000       0.31567110
    39  O          0.07386000       0.39513000       0.56567110
    40  O          0.92614000       0.60487000       0.06567110
    41  O          0.74957000       0.15563000       0.85269110
    42  O          0.25043000       0.84437000       0.35269110
    43  O          0.84437000       0.74957000       0.60269110
    44  O          0.15563000       0.25043000       0.10269110
    45  Cl         0.29589110       0.88212110       0.91944400
    46  Cl         0.70410890       0.11787890       0.41944400
    47  Cl         0.11787890       0.29589110       0.66944400
    48  Cl         0.88212110       0.70410890       0.16944400
    49  C          0.12494000       0.42864000       0.95419110
    50  C          0.87506000       0.57136000       0.45419110
    51  C          0.57136000       0.12494000       0.70419110
    52  C          0.42864000       0.87506000       0.20419110
    53  H          0.07130000       0.42690000       0.98610000
    54  H          0.92870000       0.57310000       0.48610000
    55  H          0.57310000       0.07130000       0.73610000
    56  H          0.42690000       0.92870000       0.23610000
    57  C          0.29474000       0.36284000       0.94829120
    58  C          0.70526000       0.63716000       0.44829120
    59  C          0.63716000       0.29474000       0.69829120
    60  C          0.36284000       0.70526000       0.19829120
    61  H          0.35580000       0.31540000       0.97610000
    62  H          0.64420000       0.68460000       0.47610000
    63  H          0.68460000       0.35580000       0.72610000
    64  H          0.31540000       0.64420000       0.22610000
    65  C          0.37604000       0.36564000       0.90199110
    66  C          0.62396000       0.63436000       0.40199110
    67  C          0.63436000       0.37604000       0.65199110
    68  C          0.36564000       0.62396000       0.15199110
    69  H          0.49250000       0.32060000       0.89850000
    70  H          0.50750000       0.67940000       0.39850000
    71  H          0.67940000       0.49250000       0.64850000
    72  H          0.32060000       0.50750000       0.14850000
    73  C          0.28883000       0.43373000       0.86052110
    74  C          0.71117000       0.56627000       0.36052110
    75  C          0.56627000       0.28883000       0.61052110
    76  C          0.43373000       0.71117000       0.11052110
    77  C          0.02313000       0.57113000       0.82424110
    78  C          0.97687000       0.42887000       0.32424110
    79  C          0.42887000       0.02313000       0.57424110
    80  C          0.57113000       0.97687000       0.07424110
    81  C          0.84747000       0.63694000       0.82984110
    82  C          0.15253000       0.36306000       0.32984110
    83  C          0.36306000       0.84747000       0.57984110
    84  C          0.63694000       0.15253000       0.07984110
    85  C          0.76816000       0.63284000       0.87809120
    86  C          0.23184000       0.36716000       0.37809120
    87  C          0.36716000       0.76816000       0.62809120
    88  C          0.63284000       0.23184000       0.12809120
    89  H          0.65150000       0.67650000       0.88220000
    90  H          0.34850000       0.32350000       0.38220000
    91  H          0.32350000       0.65150000       0.63220000
    92  H          0.67650000       0.34850000       0.13220000
    93  C          0.85546000       0.56834000       0.91774130
    94  C          0.14454000       0.43166000       0.41774130
    95  C          0.43166000       0.85546000       0.66774130
    96  C          0.56834000       0.14454000       0.16774130
    97  H          0.79970000       0.56920000       0.94940000
    98  H          0.20030000       0.43080000       0.44940000
    99  H          0.43080000       0.79970000       0.69940000
   100  H          0.56920000       0.20030000       0.19940000
   101  C          0.03123000       0.49803000       0.91331110
   102  C          0.96877000       0.50197000       0.41331110
   103  C          0.50197000       0.03123000       0.66331110
   104  C          0.49803000       0.96877000       0.16331110
   105  C          0.11393000       0.50103000       0.86601100
   106  C          0.88607000       0.49897000       0.36601100
   107  C          0.49897000       0.11393000       0.61601100
   108  C          0.50103000       0.88607000       0.11601100
   109  C          0.36923000       0.43953000       0.81207120
   110  C          0.63077000       0.56047000       0.31207120
   111  C          0.56047000       0.36923000       0.56207120
   112  C          0.43953000       0.63077000       0.06207120
   113  H          0.48530000       0.39440000       0.80780000
   114  H          0.51470000       0.60560000       0.30780000
   115  H          0.60560000       0.48530000       0.55780000
   116  H          0.39440000       0.51470000       0.05780000
   117  C          0.28334000       0.50793000       0.77256110
   118  C          0.71666000       0.49207000       0.27256110
   119  C          0.49207000       0.28334000       0.52256110
   120  C          0.50793000       0.71666000       0.02256110
   121  H          0.34050000       0.51060000       0.74110000
   122  H          0.65950000       0.48940000       0.24110000
   123  H          0.48940000       0.34050000       0.49110000
   124  H          0.51060000       0.65950000       0.99110000
   125  C          0.10623000       0.57703000       0.77704110
   126  C          0.89377000       0.42297000       0.27704110
   127  C          0.42297000       0.10623000       0.52704110
   128  C          0.57703000       0.89377000       0.02704110
   129  C          0.01364000       0.64724000       0.73647110
   130  C         -0.01364000       0.35276000       0.23647110
   131  C          0.35276000       0.01364000       0.48647110
   132  C          0.64724000      -0.01364000       0.98647110
   133  H          0.06850000       0.65270000       0.70470000
   134  H          0.93150000       0.34730000       0.20470000
   135  H          0.34730000       0.06850000       0.45470000
   136  H          0.65270000       0.93150000       0.95470000
   137  C          0.84276000       0.70864000       0.74234130
   138  C          0.15724000       0.29136000       0.24234130
   139  C          0.29136000       0.84276000       0.49234130
   140  C          0.70864000       0.15724000       0.99234130
   141  H          0.78120000       0.75430000       0.71440000
   142  H          0.21880000       0.24570000       0.21440000
   143  H          0.24570000       0.78120000       0.46440000
   144  H          0.75430000       0.21880000       0.96440000
   145  C          0.76066000       0.70474000       0.78786120
   146  C          0.23934000       0.29526000       0.28786120
   147  C          0.29526000       0.76066000       0.53786120
   148  C          0.70474000       0.23934000       0.03786120
   149  H          0.64360000       0.74850000       0.79100000
   150  H          0.35640000       0.25150000       0.29100000
   151  H          0.25150000       0.64360000       0.54100000
   152  H          0.74850000       0.35640000       0.04100000
