data_CORSEL
_symmetry_space_group_name_H-M    'P1'
_symmetry_Int_Tables_number       1
loop_
_symmetry_equiv_pos_site_id
_symmetry_equiv_pos_as_xyz
1 x,y,z
_cell_length_a                   6.58694
_cell_length_b                   7.52245
_cell_length_c                   34.7102
_cell_angle_alpha                89.5922
_cell_angle_beta                 87.5262
_cell_angle_gamma                73.4402
loop_
_atom_site_label
_atom_site_type_symbol
_atom_site_fract_x
_atom_site_fract_y
_atom_site_fract_z
     1  S          0.63343000       0.25323000       0.97403400
     2  S          0.36657000       0.74677000       0.02596600
     3  S          0.19283000       0.27063000      -0.00287600
     4  S          0.80717000       0.72937000       0.00287600
     5  S          0.77223000       0.13203000       0.06174600
     6  S          0.22777000       0.86797000       0.93825400
     7  S          0.32633000       0.16633000       0.08362600
     8  S          0.67367000       0.83367000       0.91637400
     9  S          0.53833000       0.37613000       0.89331400
    10  S          0.46167000       0.62387000       0.10668600
    11  S          0.01763000       0.37753000       0.92182400
    12  S          0.98237000       0.62247000       0.07817600
    13  S          0.92653000       0.03153000       0.14063600
    14  S          0.07347000       0.96847000       0.85936400
    15  S          0.38793000       0.11284000       0.16651600
    16  S          0.61207000       0.88716000       0.83348400
    17  C          0.45351300       0.23111200       0.01073000
    18  C          0.54648700       0.76888800       0.98927000
    19  C          0.51001300       0.18231100       0.04692000
    20  C          0.48998700       0.81768900       0.95308000
    21  C          0.44231400       0.32511200       0.93868000
    22  C          0.55768600       0.67488800       0.06132000
    23  C          0.24231200       0.32991100       0.94918000
    24  C          0.75768800       0.67008900       0.05082000
    25  C          0.71361300       0.09131100       0.11002000
    26  C          0.28638700       0.90868900       0.88998000
    27  C          0.50731400       0.11271200       0.12082000
    28  C          0.49268600       0.88728800       0.87918000
    29  C          0.32371300       0.35821100       0.86328000
    30  C          0.67628700       0.64178900       0.13672000
    31  H          0.34960000       0.40010000       0.83700000
    32  H          0.65040000       0.59990000       0.16300000
    33  H          0.32610000       0.22630000       0.86160000
    34  H          0.67390000       0.77370000       0.13840000
    35  C          0.10621300       0.47051200       0.87818000
    36  C          0.89378700       0.52948800       0.12182000
    37  H          0.00320000       0.47490000       0.85800000
    38  H         -0.00320000       0.52510000       0.14200000
    39  H          0.10870000       0.59920000       0.88320000
    40  H          0.89130000       0.40080000       0.11680000
    41  C          0.78791500       0.14951300       0.18423000
    42  C          0.21208500       0.85048700       0.81577000
    43  H          0.89020000       0.13760000       0.20480000
    44  H          0.10980000       0.86240000       0.79520000
    45  H          0.72730000       0.28310000       0.17880000
    46  H          0.27270000       0.71690000       0.82120000
    47  C          0.61101400       0.06791300       0.19803000
    48  C          0.38898600       0.93208700       0.80197000
    49  H          0.55790000       0.11920000       0.22390000
    50  H          0.44210000       0.88080000       0.77610000
    51  H          0.67090000       0.93210000       0.20070000
    52  H          0.32910000       0.06790000       0.79930000
    53  S          0.81103000       0.12153000       0.43841600
    54  S          0.18897000       0.87847000       0.56158400
    55  S          0.37713000       0.16223000       0.41484600
    56  S          0.62287000       0.83777000       0.58515400
    57  S          0.63043000       0.25043000       0.52509600
    58  S          0.36957000       0.74957000       0.47490400
    59  S          0.19933000       0.27253000       0.50195600
    60  S          0.80067000       0.72747000       0.49804400
    61  S          0.01143000       0.01583000       0.36050600
    62  S         -0.01143000      -0.01583000       0.63949400
    63  S          0.48523000       0.11073000       0.33179600
    64  S          0.51477000       0.88927000       0.66820400
    65  S          0.49933000       0.38553000       0.60515600
    66  S          0.50067000       0.61447000       0.39484400
    67  S         -0.00943000       0.38953000       0.57714600
    68  S          0.00943000       0.61047000       0.42285400
    69  C          0.54241200       0.17871100       0.45142000
    70  C          0.45758800       0.82128900       0.54858000
    71  C          0.46831200       0.22951200       0.48823000
    72  C          0.53168800       0.77048800       0.51177000
    73  C          0.77991300       0.08061100       0.38952000
    74  C          0.22008700       0.91938900       0.61048000
    75  C          0.57851300       0.10961200       0.37822000
    76  C          0.42148700       0.89038800       0.62178000
    77  C          0.42461300       0.32811200       0.56012000
    78  C          0.57538700       0.67188800       0.43988000
    79  C          0.22291400       0.33521200       0.54982000
    80  C          0.77708600       0.66478800       0.45018000
    81  C          0.90401500       0.11851400       0.31543000
    82  C          0.09598500       0.88148600       0.68457000
    83  H          0.84660000       0.25450000       0.31880000
    84  H          0.15340000       0.74550000       0.68120000
    85  H          0.01950000       0.09490000       0.29520000
    86  H          0.98050000       0.90510000       0.70480000
    87  C          0.72991500       0.04041300       0.30233000
    88  C          0.27008500       0.95958700       0.69767000
    89  H          0.78310000       0.90330000       0.30220000
    90  H          0.21690000       0.09670000       0.69780000
    91  H          0.69820000       0.08010000       0.27540000
    92  H          0.30180000       0.91990000       0.72460000
    93  C          0.27591400       0.36701300       0.63543000
    94  C          0.72408600       0.63298700       0.36457000
    95  H          0.27900000       0.23480000       0.63700000
    96  H          0.72100000       0.76520000       0.36300000
    97  H          0.29190000       0.40930000       0.66180000
    98  H          0.70810000       0.59070000       0.33820000
    99  C          0.05961300       0.47911300       0.62142000
   100  C          0.94038700       0.52088700       0.37858000
   101  H          0.06060000       0.60920000       0.61730000
   102  H          0.93940000       0.39080000       0.38270000
   103  H          0.94930000       0.47890000       0.64170000
   104  H          0.05070000       0.52110000       0.35830000
   105  S          0.04044000       0.48073000       0.24738700
   106  S          0.95956000       0.51927000       0.75261300
   107  O          0.18591200       0.29839000       0.24852000
   108  O          0.81408800       0.70161000       0.75148000
   109  O          0.90448800       0.51991200       0.21492000
   110  O          0.09551200       0.48008800       0.78508000
   111  O          0.93948900       0.54891000       0.28404190
   112  O          0.06051100       0.45109000       0.71595810
   113  C          0.21161500       0.63251300       0.23733000
   114  C          0.78838500       0.36748700       0.76267000
   115  F          0.08489000       0.81248000       0.23602000
   116  F          0.91511000       0.18752000       0.76398000
   117  F          0.30861100       0.59151000       0.20190180
   118  F          0.69138900       0.40849000       0.79809820
   119  C          0.38071500       0.63191500       0.26563000
   120  C          0.61928500       0.36808500       0.73437000
   121  F          0.48221000       0.75729000       0.25522000
   122  F          0.51779000       0.24271000       0.74478000
   123  F          0.30091100       0.67291200       0.30112000
   124  F          0.69908900       0.32708800       0.69888000
   125  F          0.52271000       0.46609000       0.26632000
   126  F          0.47729000       0.53391000       0.73368000
