data_COSDEW
_symmetry_space_group_name_H-M    'P1'
_symmetry_Int_Tables_number       1
loop_
_symmetry_equiv_pos_site_id
_symmetry_equiv_pos_as_xyz
1 x,y,z
_cell_length_a                   11.70724
_cell_length_b                   7.13722
_cell_length_c                   27.788211
_cell_angle_alpha                90.0
_cell_angle_beta                 96.0933
_cell_angle_gamma                90.0
loop_
_atom_site_label
_atom_site_type_symbol
_atom_site_fract_x
_atom_site_fract_y
_atom_site_fract_z
     1  Cl         0.15073300       0.20923600       0.69032200
     2  Cl         0.84926700       0.70923600       0.80967800
     3  Cl         0.84926700       0.79076400       0.30967800
     4  Cl         0.15073300       0.29076400       0.19032200
     5  N          0.97877120       0.71678190       0.67765500
     6  N          0.02122880       0.21678190       0.82234500
     7  N          0.02122880       0.28321810       0.32234500
     8  N          0.97877120       0.78321810       0.17765500
     9  C          0.06897160       0.71513000       0.71992600
    10  C          0.93102840       0.21513000       0.78007400
    11  C          0.93102840       0.28487000       0.28007400
    12  C          0.06897160       0.78487000       0.21992600
    13  H          0.03302000       0.70952200       0.74937000
    14  H          0.96698000       0.20952200       0.75063000
    15  H          0.96698000       0.29047800       0.25063000
    16  H          0.03302000       0.79047800       0.24937000
    17  H          0.11432700       0.82709600       0.71968100
    18  H          0.88567300       0.32709600       0.78031900
    19  H          0.88567300       0.17290400       0.28031900
    20  H          0.11432700       0.67290400       0.21968100
    21  H          0.11752600       0.60764200       0.71786900
    22  H          0.88247400       0.10764200       0.78213100
    23  H          0.88247400       0.39235800       0.28213100
    24  H          0.11752600       0.89235800       0.21786900
    25  C          0.90662150       0.54332000       0.67786700
    26  C          0.09337850       0.04332000       0.82213300
    27  C          0.09337850       0.45668000       0.32213300
    28  C          0.90662150       0.95668000       0.17786700
    29  H          0.95497700       0.43480200       0.67757600
    30  H          0.04502300       0.93480200       0.82242400
    31  H          0.04502300       0.56519800       0.32242400
    32  H          0.95497700       0.06519800       0.17757600
    33  H          0.85150200       0.54234200       0.64969500
    34  H          0.14849800       0.04234200       0.85030500
    35  H          0.14849800       0.45765800       0.35030500
    36  H          0.85150200       0.95765800       0.14969500
    37  H          0.86717300       0.54180000       0.70642800
    38  H          0.13282700       0.04180000       0.79357200
    39  H          0.13282700       0.45820000       0.29357200
    40  H          0.86717300       0.95820000       0.20642800
    41  C          0.90276150       0.88402000       0.68068700
    42  C          0.09723850       0.38402000       0.81931300
    43  C          0.09723850       0.11598000       0.31931300
    44  C          0.90276150       0.61598000       0.18068700
    45  H          0.86531800       0.87704900       0.70973300
    46  H          0.13468200       0.37704900       0.79026700
    47  H          0.13468200       0.12295100       0.29026700
    48  H          0.86531800       0.62295100       0.20973300
    49  H          0.84599900       0.88618200       0.65308600
    50  H          0.15400100       0.38618200       0.84691400
    51  H          0.15400100       0.11381800       0.34691400
    52  H          0.84599900       0.61381800       0.15308600
    53  H          0.94821500      -0.00392200       0.68115900
    54  H          0.05178500       0.49607800       0.81884100
    55  H          0.05178500       0.00392200       0.31884100
    56  H          0.94821500       0.50392200       0.18115900
    57  C          0.03536170       0.72553000       0.63213700
    58  C          0.96463830       0.22553000       0.86786300
    59  C          0.96463830       0.27447000       0.36786300
    60  C          0.03536170       0.77447000       0.13213700
    61  H          0.07972900       0.83852400       0.63178500
    62  H          0.92027100       0.33852400       0.86821500
    63  H          0.92027100       0.16147600       0.36821500
    64  H          0.07972900       0.66147600       0.13178500
    65  H          0.97782900       0.72451200       0.60480300
    66  H          0.02217100       0.22451200       0.89519700
    67  H          0.02217100       0.27548800       0.39519700
    68  H          0.97782900       0.77548800       0.10480300
    69  H          0.08496100       0.61912400       0.63046900
    70  H          0.91503900       0.11912400       0.86953100
    71  H          0.91503900       0.38087600       0.36953100
    72  H          0.08496100       0.88087600       0.13046900
    73  N          0.34538130       0.28982000       0.61364500
    74  N          0.65461870       0.78982000       0.88635500
    75  N          0.65461870       0.71018000       0.38635500
    76  N          0.34538130       0.21018000       0.11364500
    77  H          0.29437300       0.27438200       0.63339500
    78  H          0.70562700       0.77438200       0.86660500
    79  H          0.70562700       0.72561800       0.36660500
    80  H          0.29437300       0.22561800       0.13339500
    81  N          0.73254140       0.23092000       0.68431600
    82  N          0.26745860       0.73092000       0.81568400
    83  N          0.26745860       0.76908000       0.31568400
    84  N          0.73254140       0.26908000       0.18431600
    85  N          0.21339140       0.33003000       0.44579600
    86  N          0.78660860       0.83003000       0.05420400
    87  N          0.78660860       0.66997000       0.55420400
    88  N          0.21339140       0.16997000       0.94579600
    89  C          0.51314150       0.29252000       0.67669600
    90  C          0.48685850       0.79252000       0.82330400
    91  C          0.48685850       0.70748000       0.32330400
    92  C          0.51314150       0.20748000       0.17669600
    93  C          0.46202150       0.30222000       0.62652600
    94  C          0.53797850       0.80222000       0.87347400
    95  C          0.53797850       0.69778000       0.37347400
    96  C          0.46202150       0.19778000       0.12652600
    97  C          0.49036150       0.30182000       0.76743600
    98  C          0.50963850       0.80182000       0.73256400
    99  C          0.50963850       0.69818000       0.23256400
   100  C          0.49036150       0.19818000       0.26743600
   101  C          0.20821160       0.29353000       0.53843700
   102  C          0.79178840       0.79353000       0.96156300
   103  C          0.79178840       0.70647000       0.46156300
   104  C          0.20821160       0.20647000       0.03843700
   105  C          0.63537150       0.26012000       0.68174600
   106  C          0.36462850       0.76012000       0.81825400
   107  C          0.36462850       0.73988000       0.31825400
   108  C          0.63537150       0.23988000       0.18174600
   109  C          0.40504160       0.26693000       0.79813700
   110  C          0.59495840       0.76693000       0.70186300
   111  C          0.59495840       0.73307000       0.20186300
   112  C          0.40504160       0.23307000       0.29813700
   113  H          0.32965300       0.24716400       0.78491700
   114  H          0.67034700       0.74716400       0.71508300
   115  H          0.67034700       0.75283600       0.21508300
   116  H          0.32965300       0.25283600       0.28491700
   117  C          0.45275150       0.30722000       0.71545700
   118  C          0.54724850       0.80722000       0.78454300
   119  C          0.54724850       0.69278000       0.28454300
   120  C          0.45275150       0.19278000       0.21545700
   121  H          0.37411000       0.32347600       0.70779000
   122  H          0.62589000       0.82347600       0.79221000
   123  H          0.62589000       0.67652400       0.29221000
   124  H          0.37411000       0.17652400       0.20779000
   125  C          0.32336160       0.30593000       0.56418600
   126  C          0.67663840       0.80593000       0.93581400
   127  C          0.67663840       0.69407000       0.43581400
   128  C          0.32336160       0.19407000       0.06418600
   129  C         -0.00839170       0.23833000       0.54104700
   130  C          0.00839170       0.73833000       0.95895300
   131  C          0.00839170       0.76167000       0.45895300
   132  C         -0.00839170       0.26167000       0.04104700
   133  C          0.42754160       0.33093000       0.54564700
   134  C          0.57245840       0.83093000       0.95435300
   135  C          0.57245840       0.66907000       0.45435300
   136  C          0.42754160       0.16907000       0.04564700
   137  H          0.43820300       0.34695500       0.51320200
   138  H          0.56179700       0.84695500       0.98679800
   139  H          0.56179700       0.65304500       0.48679800
   140  H          0.43820300       0.15304500       0.01320200
   141  C          0.51421160       0.32763000       0.58470700
   142  C          0.48578840       0.82763000       0.91529300
   143  C          0.48578840       0.67237000       0.41529300
   144  C          0.51421160       0.17237000       0.08470700
   145  H          0.59264600       0.34019600       0.58274400
   146  H          0.40735400       0.84019600       0.91725600
   147  H          0.40735400       0.65980400       0.41725600
   148  H          0.59264600       0.15980400       0.08274400
   149  C          0.20756160       0.31423000       0.48677700
   150  C          0.79243840       0.81423000       0.01322300
   151  C          0.79243840       0.68577000       0.51322300
   152  C          0.20756160       0.18577000       0.98677700
   153  C          0.60236160       0.33453000       0.78833700
   154  C          0.39763840       0.83453000       0.71166300
   155  C          0.39763840       0.66547000       0.21166300
   156  C          0.60236160       0.16547000       0.28833700
   157  H          0.66007000       0.35956000       0.76868300
   158  H          0.33993000       0.85956000       0.73131700
   159  H          0.33993000       0.64044000       0.23131700
   160  H          0.66007000       0.14044000       0.26868300
   161  C          0.91513830       0.18783000       0.57407700
   162  C          0.08486170       0.68783000       0.92592300
   163  C          0.08486170       0.81217000       0.42592300
   164  C          0.91513830       0.31217000       0.07407700
   165  H          0.94199400       0.17569600       0.60663500
   166  H          0.05800600       0.67569600       0.89336500
   167  H          0.05800600       0.82430400       0.39336500
   168  H          0.94199400       0.32430400       0.10663500
   169  C          0.80028830       0.15523000       0.55937700
   170  C          0.19971170       0.65523000       0.94062300
   171  C          0.19971170       0.84477000       0.44062300
   172  C          0.80028830       0.34477000       0.05937700
   173  H          0.75104600       0.12037000       0.58195400
   174  H          0.24895400       0.62037000       0.91804600
   175  H          0.24895400       0.87963000       0.41804600
   176  H          0.75104600       0.37963000       0.08195400
   177  C          0.11180170       0.26163000       0.56035600
   178  C          0.88819830       0.76163000       0.93964400
   179  C          0.88819830       0.73837000       0.43964400
   180  C          0.11180170       0.23837000       0.06035600
   181  H          0.12462500       0.25299800       0.59388400
   182  H          0.87537500       0.75299800       0.90611600
   183  H          0.87537500       0.74700200       0.40611600
   184  H          0.12462500       0.24700200       0.09388400
   185  C          0.43174180       0.26173000       0.84798700
   186  C          0.56825820       0.76173000       0.65201300
   187  C          0.56825820       0.73827000       0.15201300
   188  C          0.43174180       0.23827000       0.34798700
   189  H          0.37443400       0.23750700       0.86789200
   190  H          0.62556600       0.73750700       0.63210800
   191  H          0.62556600       0.76249300       0.13210800
   192  H          0.37443400       0.26249300       0.36789200
   193  C          0.54347180       0.29223000       0.86814700
   194  C          0.45652820       0.79223000       0.63185300
   195  C          0.45652820       0.70777000       0.13185300
   196  C          0.54347180       0.20777000       0.36814700
   197  H          0.56158600       0.28744200       0.90152500
   198  H          0.43841400       0.78744200       0.59847500
   199  H          0.43841400       0.71255800       0.09847500
   200  H          0.56158600       0.21255800       0.40152500
   201  C          0.62814170       0.33003000       0.83823700
   202  C          0.37185830       0.83003000       0.66176300
   203  C          0.37185830       0.66997000       0.16176300
   204  C          0.62814170       0.16997000       0.33823700
   205  H          0.70299300       0.35253600       0.85173100
   206  H          0.29700700       0.85253600       0.64826900
   207  H          0.29700700       0.64746400       0.14826900
   208  H          0.70299300       0.14746400       0.35173100
   209  C          0.75837830       0.17453000       0.51108800
   210  C          0.24162170       0.67453000       0.98891200
   211  C          0.24162170       0.82547000       0.48891200
   212  C          0.75837830       0.32547000       0.01108800
   213  H          0.68158400       0.14975600       0.50095500
   214  H          0.31841600       0.64975600      -0.00095500
   215  H          0.31841600       0.85024400       0.49904500
   216  H          0.68158400       0.35024400       0.00095500
   217  C          0.94698000       0.26334000       0.49284800
   218  C          0.05302000       0.76334000       0.00715200
   219  C          0.05302000       0.73666000       0.50715200
   220  C          0.94698000       0.23666000       0.99284800
   221  H         -0.00476700       0.30227900       0.47025800
   222  H          0.00476700       0.80227900       0.02974200
   223  H          0.00476700       0.69772100       0.52974200
   224  H         -0.00476700       0.19772100       0.97025800
   225  C          0.83179810       0.23074000       0.47822800
   226  C          0.16820190       0.73074000       0.02177200
   227  C          0.16820190       0.76926000       0.52177200
   228  C          0.83179810       0.26926000       0.97822800
   229  H          0.80375600       0.24688100       0.44591100
   230  H          0.19624400       0.74688100       0.05408900
   231  H          0.19624400       0.75311900       0.55408900
   232  H          0.80375600       0.25311900       0.94591100
