data_COTNAE
_symmetry_space_group_name_H-M    'P1'
_symmetry_Int_Tables_number       1
loop_
_symmetry_equiv_pos_site_id
_symmetry_equiv_pos_as_xyz
1 x,y,z
_cell_length_a                   9.62784
_cell_length_b                   10.85494
_cell_length_c                   14.36095
_cell_angle_alpha                83.5682
_cell_angle_beta                 83.6462
_cell_angle_gamma                65.8342
loop_
_atom_site_label
_atom_site_type_symbol
_atom_site_fract_x
_atom_site_fract_y
_atom_site_fract_z
     1  O          0.61963000       0.26603000       0.39031150
     2  O          0.38037000       0.73397000       0.60968850
     3  O          0.39573000       0.44533000       0.32389150
     4  O          0.60427000       0.55467000       0.67610850
     5  O          0.40663000       0.39693000       0.48903160
     6  O          0.59337000       0.60307000       0.51096840
     7  O          0.64497000       0.86913000       0.56442180
     8  O          0.35503000       0.13087000       0.43557820
     9  H          0.55874500       0.93361700       0.56809800
    10  H          0.44125500       0.06638300       0.43190200
    11  O          0.63307000       0.94193000       0.41238180
    12  O          0.36693000       0.05807000       0.58761820
    13  N          0.53453000       0.23813000       0.24062180
    14  N          0.46547000       0.76187000       0.75937820
    15  O          0.09754000       0.53244000       0.11282000
    16  O          0.90246000       0.46756000       0.88718000
    17  O          0.89684000       0.69004000       0.04472000
    18  O          0.10316000       0.30996000       0.95528000
    19  H          0.95991200       0.72490400       0.02806100
    20  H          0.04008800       0.27509600       0.97193900
    21  O          0.00054000       0.94366000       0.80582000
    22  O         -0.00054000       0.05634000       0.19418000
    23  H          0.03497600       0.90755100       0.85782100
    24  H          0.96502400       0.09244900       0.14217900
    25  C          0.16174000       0.57484000       0.42832000
    26  C          0.83826000       0.42516000       0.57168000
    27  C          0.65814000       0.40744000       0.24742000
    28  C          0.34186000       0.59256000       0.75258000
    29  C          0.63074000       0.21534000       0.56622000
    30  C          0.36926000       0.78466000       0.43378000
    31  C          0.86126000       0.76464000       0.46243000
    32  C          0.13874000       0.23536000       0.53757000
    33  C          0.53325000       0.07014000       0.10832000
    34  C          0.46675000       0.92986000       0.89168000
    35  C          0.41565000       0.27494000       0.18753000
    36  C          0.58435000       0.72506000       0.81247000
    37  H          0.33163900       0.35926700       0.19554500
    38  H          0.66836100       0.64073300       0.80445500
    39  C          0.09604000       0.60074000       0.51943000
    40  C          0.90396000       0.39926000       0.48057000
    41  H          0.15384900       0.55204900       0.57110200
    42  H          0.84615100       0.44795100       0.42889800
    43  C          0.70366000       0.86614000       0.47823000
    44  C          0.29634000       0.13386000       0.52177000
    45  C          0.64884000       0.11674000       0.23282000
    46  C          0.35116000       0.88326000       0.76718000
    47  H          0.72973400       0.08828000       0.27324200
    48  H          0.27026600       0.91172000       0.72675800
    49  C          0.94916000       0.69524000       0.53643000
    50  C          0.05084000       0.30476000       0.46357000
    51  H          0.90829600       0.71268300       0.59916600
    52  H          0.09170400       0.28731700       0.40083400
    53  C          0.65225000       0.03164000       0.16762000
    54  C          0.34775000       0.96836000       0.83238000
    55  H          0.73584600       0.94628200       0.16280600
    56  H          0.26415400       0.05371800       0.83719400
    57  O          0.78904000       0.02245000       0.89312000
    58  O          0.21096000       0.97755000       0.10688000
    59  C          0.41225000       0.19354000       0.12173000
    60  C          0.58775000       0.80646000       0.87827000
    61  H          0.32641500       0.22200900       0.08530000
    62  H          0.67358500       0.77799100       0.91470000
    63  C          0.78325000       0.12024000       0.56143000
    64  C          0.21675000       0.87976000       0.43857000
    65  H          0.83706400       0.10086700       0.50158500
    66  H          0.16293600       0.89913300       0.49841500
    67  C          0.92495000       0.73944000       0.37043000
    68  C          0.07505000       0.26056000       0.62957000
    69  H          0.86647500       0.78707000       0.31882400
    70  H          0.13352500       0.21293000       0.68117600
    71  C          0.07254000       0.64564000       0.35453000
    72  C          0.92746000       0.35436000       0.64547000
    73  H          0.11402900       0.62905200       0.29174000
    74  H          0.88597100       0.37094800       0.70826000
    75  C          0.78035000       0.07884000       0.72853000
    76  C          0.21965000       0.92116000       0.27147000
    77  C          0.55595000       0.23575000       0.65573000
    78  C          0.44405000       0.76425000       0.34427000
    79  H          0.45193000       0.29718000       0.66201700
    80  H          0.54807000       0.70282000       0.33798300
    81  C          0.85685000       0.52005000       0.14843000
    82  C          0.14315000       0.47995000       0.85157000
    83  C          0.54525000       0.98326000       0.03442000
    84  C          0.45475000       0.01674000       0.96558000
    85  H          0.62518100       0.89536100       0.03632700
    86  H          0.37481900       0.10463900       0.96367300
    87  C          0.85725000       0.05394000       0.64153000
    88  C          0.14275000       0.94606000       0.35847000
    89  H          0.96077900      -0.00874500       0.63621400
    90  H          0.03922100       0.00874500       0.36378600
    91  C          0.81595000       0.35794000       0.26143000
    92  C          0.18405000       0.64206000       0.73857000
    93  H          0.85723800       0.28325000       0.30608500
    94  H          0.14276200       0.71675000       0.69391500
    95  C          0.70025000       0.57015000       0.13083000
    96  C          0.29975000       0.42985000       0.86917000
    97  H          0.65940600       0.64337300       0.08504900
    98  H          0.34059400       0.35662700       0.91495100
    99  C          0.96075000       0.57975000       0.10123000
   100  C          0.03925000       0.42025000       0.89877000
   101  C          0.62965000       0.16845000       0.73543000
   102  C          0.37035000       0.83155000       0.26457000
   103  H          0.57571700       0.18416200       0.79544000
   104  H          0.42428300       0.81583800       0.20456000
   105  C          0.60855000       0.51425000       0.17883000
   106  C          0.39145000       0.48575000       0.82117000
   107  H          0.50445500       0.54982000       0.16494100
   108  H          0.49554500       0.45018000       0.83505900
   109  C          0.85455000       0.01285000       0.81743000
   110  C          0.14545000      -0.01285000       0.18257000
   111  C          0.91185000       0.41195000       0.21403000
   112  C          0.08815000       0.58805000       0.78597000
   113  H          0.01659700       0.37480200       0.22634100
   114  H          0.98340300       0.62519800       0.77365900
   115  B          0.55095000       0.29514000       0.47713000
   116  B          0.44905000       0.70486000       0.52287000
   117  B          0.54975000       0.34535000       0.30663000
   118  B          0.45025000       0.65465000       0.69337000
   119  B          0.32795000       0.46864000       0.41163000
   120  B          0.67205000       0.53136000       0.58837000
   121  O          0.10704000       0.78504000       0.96888000
   122  O          0.89296000       0.21496000       0.03112000
   123  O          0.28795000       0.64035000       0.05713000
   124  O          0.71205000       0.35965000       0.94287000
   125  H          0.22406900       0.60650000       0.07440500
   126  H          0.77593100       0.39350000       0.92559500
   127  C          0.23247000       0.73817000      -0.00374000
   128  C          0.76753000       0.26183000       0.00374000
   129  H          0.29879600       0.77936800       0.96905300
   130  H          0.70120400       0.22063200       0.03094700
