data_COWMIO
_symmetry_space_group_name_H-M    'P1'
_symmetry_Int_Tables_number       1
loop_
_symmetry_equiv_pos_site_id
_symmetry_equiv_pos_as_xyz
1 x,y,z
_cell_length_a                   6.27344
_cell_length_b                   7.63424
_cell_length_c                   19.424811
_cell_angle_alpha                91.11701
_cell_angle_beta                 96.86101
_cell_angle_gamma                96.4442
loop_
_atom_site_label
_atom_site_type_symbol
_atom_site_fract_x
_atom_site_fract_y
_atom_site_fract_z
     1  S          0.74486700       0.40960600       0.18186200
     2  S          0.25513300       0.59039400       0.81813800
     3  O         -0.02408000       0.52612000       0.31892700
     4  O          0.02408000       0.47388000       0.68107300
     5  H          0.00990000       0.43800000       0.33890000
     6  H         -0.00990000       0.56200000       0.66110000
     7  O          0.42052000       0.23132000       0.06892900
     8  O          0.57948000       0.76868000       0.93107100
     9  O          0.28133000       0.64232000       0.28128800
    10  O          0.71867000       0.35768000       0.71871200
    11  O          0.63403000       0.26913000       0.98572800
    12  O          0.36597000       0.73087000       0.01427200
    13  H          0.75590000       0.24040000       0.98500000
    14  H          0.24410000       0.75960000       0.01500000
    15  C          0.77963000       0.36492000       0.09762800
    16  C          0.22037000       0.63508000       0.90237200
    17  C          0.11783000       0.48983000       0.14408900
    18  C          0.88217000       0.51017000       0.85591100
    19  H          0.26330000       0.53100000       0.14460000
    20  H          0.73670000       0.46900000       0.85540000
    21  C         -0.01327000       0.41313000       0.08496900
    22  C          0.01327000       0.58687000       0.91503100
    23  H          0.03560000       0.39710000       0.04220000
    24  H          0.96440000       0.60290000       0.95780000
    25  C          0.10003000       0.56262000       0.27201900
    26  C          0.89997000       0.43738000       0.72798100
    27  C          0.59283000       0.28113000       0.04982100
    28  C          0.40717000       0.71887000       0.95017900
    29  C          0.00903000       0.49722000       0.20049800
    30  C         -0.00903000       0.50278000       0.79950200
    31  O          0.16502000       0.58782000       0.43700700
    32  O          0.83498000       0.41218000       0.56299300
    33  N          0.57952000       0.75843180       0.61627700
    34  N          0.42048000       0.24156820       0.38372300
    35  O          0.92788000       0.76852000       0.45993800
    36  O          0.07212000       0.23148000       0.54006200
    37  C          0.75073000       0.87053000       0.60389900
    38  C          0.24927000       0.12947000       0.39610100
    39  H          0.77700000       0.89010000       0.55840000
    40  H          0.22300000       0.10990000       0.44160000
    41  N          0.31253000       0.14922000       0.89292900
    42  N          0.68747000       0.85078000       0.10707100
    43  C          0.85232000       0.92662000       0.72577800
    44  C          0.14768000       0.07338000       0.27422200
    45  C          0.00693000       0.00722000       0.78452800
    46  C         -0.00693000      -0.00722000       0.21547200
    47  C          0.66843000       0.81402000       0.73671900
    48  C          0.33157000       0.18598000       0.26328100
    49  H          0.63600000       0.79450000       0.78160000
    50  H          0.36400000       0.20550000       0.21840000
    51  C          0.09543000       0.70212000       0.47433800
    52  C          0.90457000       0.29788000       0.52566200
    53  C          0.21693000       0.07263000       0.77307100
    54  C          0.78307000       0.92737000       0.22692900
    55  H          0.25810000       0.06990000       0.72870000
    56  H          0.74190000       0.93010000       0.27130000
    57  C          0.53593000       0.73222000       0.68129900
    58  C          0.46407000       0.26778000       0.31870100
    59  H          0.41410000       0.65740000       0.68900000
    60  H          0.58590000       0.34260000       0.31100000
    61  C          0.88703000       0.95632000       0.65755900
    62  C          0.11297000       0.04368000       0.34244100
    63  H          0.00350000       0.03490000       0.64810000
    64  H         -0.00350000       0.96510000       0.35190000
    65  C          0.43423000       0.66892000       0.55686900
    66  C          0.56577000       0.33108000       0.44313100
    67  H          0.39360000       0.54700000       0.56760000
    68  H          0.60640000       0.45300000       0.43240000
    69  H          0.50980000       0.66980000       0.51610000
    70  H          0.49020000       0.33020000       0.48390000
    71  C          0.23483000       0.76023000       0.54199100
    72  C          0.76517000       0.23977000       0.45800900
    73  H          0.27790000       0.88610000       0.54110000
    74  H          0.72210000       0.11390000       0.45890000
    75  H          0.14790000       0.74000000       0.57980000
    76  H          0.85210000       0.26000000       0.42020000
    77  C          0.95493000       0.01713000       0.85167100
    78  C          0.04507000      -0.01713000       0.14832900
    79  H          0.81700000       0.97580000       0.86160000
    80  H          0.18300000       0.02420000       0.13840000
    81  C          0.36183000       0.14143000       0.82874110
    82  C          0.63817000       0.85857000       0.17125890
    83  H          0.50090000       0.18440000       0.82070000
    84  H          0.49910000       0.81560000       0.17930000
    85  C          0.11264000       0.09013000       0.90423100
    86  C          0.88736000       0.90987000       0.09576900
    87  H          0.07640000       0.09770000       0.94920000
    88  H          0.92360000       0.90230000       0.05080000
    89  O          0.43103000       0.14332000       0.62110100
    90  O          0.56897000       0.85668000       0.37889900
    91  H          0.46990000       0.13250000       0.58090000
    92  H          0.53010000       0.86750000       0.41910000
    93  H          0.51230000       0.22650000       0.64390000
    94  H          0.48770000       0.77350000       0.35610000
