data_COWQOX
_symmetry_space_group_name_H-M    'P1'
_symmetry_Int_Tables_number       1
loop_
_symmetry_equiv_pos_site_id
_symmetry_equiv_pos_as_xyz
1 x,y,z
_cell_length_a                   4.80023
_cell_length_b                   8.51295
_cell_length_c                   11.24077
_cell_angle_alpha                102.13049
_cell_angle_beta                 101.72571
_cell_angle_gamma                104.522611
loop_
_atom_site_label
_atom_site_type_symbol
_atom_site_fract_x
_atom_site_fract_y
_atom_site_fract_z
     1  I          0.10796800       0.27371400       0.41192300
     2  I          0.89203200       0.72628600       0.58807700
     3  O          0.47661100       0.25754000       0.67903000
     4  O          0.52338900       0.74246000       0.32097000
     5  O          0.78159000       0.05724000       0.74602000
     6  O          0.21841000       0.94276000       0.25398000
     7  C          0.33429000       0.10934000       0.46343000
     8  C          0.66571000       0.89066000       0.53657000
     9  C          0.48091000       0.13924000       0.59143000
    10  C          0.51909000       0.86076000       0.40857000
    11  C          0.65429000       0.02464000       0.62913000
    12  C          0.34571000       0.97536000       0.37087000
    13  H          0.63815000       0.21770000       0.78350000
    14  H          0.36185000       0.78230000       0.21650000
    15  H          0.36215000       0.78230000       0.21750000
    16  H          0.63785000       0.21770000       0.78250000
    17  N          0.70751000       0.30104000       0.94093000
    18  N          0.29249000       0.69896000       0.05907000
    19  C          0.88179000       0.44884000       0.02152000
    20  C          0.11821000       0.55116000       0.97848000
    21  C          0.48671400       0.20276000       0.97424000
    22  C          0.51328600       0.79724000       0.02576000
    23  C          0.43381400       0.24566000       0.09014000
    24  C          0.56618600       0.75434000       0.90986000
    25  C          0.60771400       0.39706000       0.17293000
    26  C          0.39228600       0.60294000       0.82707000
    27  C          0.83231200       0.49975000       0.13853000
    28  C          0.16768800       0.50025000       0.86147000
    29  H          0.36814000       0.10460000       0.90450000
    30  H          0.63186000       0.89540000       0.09550000
    31  H          0.25419000       0.17690000       0.11170000
    32  H          0.74581000       0.82310000       0.88830000
    33  H          0.53818000       0.43180000       0.24860000
    34  H          0.46182000       0.56820000       0.75140000
    35  H         -0.04186000       0.60070000       0.20350000
    36  H          0.04186000       0.39930000       0.79650000
    37  H          0.63214000       0.89660000       0.09650000
    38  H          0.36786000       0.10340000       0.90350000
    39  H          0.74619000       0.82490000       0.88970000
    40  H          0.25381000       0.17510000       0.11030000
    41  H          0.46218000       0.56980000       0.75260000
    42  H          0.53782000       0.43020000       0.24740000
    43  H          0.04214000       0.40070000       0.79750000
    44  H         -0.04214000       0.59930000       0.20250000
