data_COWQOX01
_symmetry_space_group_name_H-M    'P1'
_symmetry_Int_Tables_number       1
loop_
_symmetry_equiv_pos_site_id
_symmetry_equiv_pos_as_xyz
1 x,y,z
_cell_length_a                   8.53592
_cell_length_b                   9.66562
_cell_length_c                   11.25857
_cell_angle_alpha                102.84367
_cell_angle_beta                 100.66677
_cell_angle_gamma                107.82507
loop_
_atom_site_label
_atom_site_type_symbol
_atom_site_fract_x
_atom_site_fract_y
_atom_site_fract_z
     1  I          0.28458200       0.29365200       0.92203200
     2  I          0.71541800       0.70634800       0.07796800
     3  O          0.95022000      -0.00073000       0.75853130
     4  O          0.04978000       0.00073000       0.24146870
     5  O          0.26362000       0.22843000       0.18483130
     6  O          0.73638000       0.77157000       0.81516870
     7  H          0.25961600       0.21052800       0.25231400
     8  H          0.74038400       0.78947200       0.74768600
     9  C         -0.02138000       0.00413000       0.87103160
    10  C          0.02138000      -0.00413000       0.12896840
    11  C          0.11682000       0.12293000       0.97005160
    12  C          0.88318000       0.87707000       0.02994840
    13  C          0.13973000       0.12143000       0.09346160
    14  C          0.86027000       0.87857000       0.90653840
    15  I          0.26191200       0.78355200       0.89706200
    16  I          0.73808800       0.21644800       0.10293800
    17  O          0.25522000       0.73573000       0.17046150
    18  O          0.74478000       0.26427000       0.82953850
    19  O          0.93522000       0.47853000       0.74838130
    20  O          0.06478000       0.52147000       0.25161870
    21  H          0.85324800       0.39918800       0.71121300
    22  H          0.14675200       0.60081200       0.28878700
    23  C          0.13912000       0.62873000       0.08809180
    24  C          0.86088000       0.37127000       0.91190820
    25  C          0.10302000       0.61723000       0.95523170
    26  C          0.89698000       0.38277000       0.04476830
    27  C          0.97152000       0.49513000       0.86920180
    28  C          0.02848000       0.50487000       0.13079820
    29  N          0.31532000       0.28353000       0.43434150
    30  N          0.68468000       0.71647000       0.56565850
    31  N          0.71442000       0.24233000       0.55437140
    32  N          0.28558000       0.75767000       0.44562860
    33  C          0.45322000       0.29483000       0.52158150
    34  C          0.54678000       0.70517000       0.47841850
    35  C          0.21393000       0.35874000       0.46672000
    36  C          0.78607000       0.64126000       0.53328000
    37  H          0.11812000       0.34805100       0.40524600
    38  H          0.88188000       0.65194900       0.59475400
    39  C          0.24603000       0.45144000       0.58782000
    40  C          0.75397000       0.54856000       0.41218000
    41  H          0.17290800       0.50148500       0.60843700
    42  H          0.82709200       0.49851500       0.39156300
    43  C          0.39023000       0.46754000       0.67752000
    44  C          0.60977000       0.53246000       0.32248000
    45  H          0.41772600       0.53163600       0.75930100
    46  H          0.58227400       0.46836400       0.24069900
    47  C          0.49293000       0.38834000       0.64504170
    48  C          0.50707000       0.61166000       0.35495830
    49  H          0.58871900       0.39705700       0.70547300
    50  H          0.41128100       0.60294300       0.29452700
    51  C          0.55602000       0.20583000       0.47915150
    52  C          0.44398000       0.79417000       0.52084850
    53  C          0.81273000       0.16314000       0.52182000
    54  C          0.18727000       0.83686000       0.47818000
    55  H          0.91959800       0.18749900       0.57669000
    56  H          0.08040200       0.81250100       0.42331000
    57  C          0.76063000       0.04694000       0.41002000
    58  C          0.23937000       0.95306000       0.58998000
    59  H          0.83260800      -0.00350700       0.38758100
    60  H          0.16739200       0.00350700       0.61241900
    61  C          0.59813000       0.00754000       0.33222000
    62  C          0.40187000      -0.00754000       0.66778000
    63  H          0.55880300       0.92897400       0.25653800
    64  H          0.44119700       0.07102600       0.74346200
    65  C          0.49483000       0.08523000       0.36728170
    66  C          0.50517000       0.91477000       0.63271830
    67  H          0.38436700       0.05736900       0.31643700
    68  H          0.61563300       0.94263100       0.68356300
