data_COWSIT
_symmetry_space_group_name_H-M    'P1'
_symmetry_Int_Tables_number       1
loop_
_symmetry_equiv_pos_site_id
_symmetry_equiv_pos_as_xyz
1 x,y,z
_cell_length_a                   8.493615
_cell_length_b                   9.687817
_cell_length_c                   11.232019
_cell_angle_alpha                102.8552
_cell_angle_beta                 100.713118
_cell_angle_gamma                107.8463
loop_
_atom_site_label
_atom_site_type_symbol
_atom_site_fract_x
_atom_site_fract_y
_atom_site_fract_z
     1  I          0.73979700       0.71743800       0.10462200
     2  I          0.26020300       0.28256200       0.89537800
     3  O          0.06743000       0.02382000       0.25263170
     4  O          0.93257000       0.97618000       0.74736830
     5  O          0.25613000       0.23612000       0.16940190
     6  O          0.74387000       0.76388000       0.83059810
     7  C          0.89817000       0.88407000       0.04572000
     8  C          0.10183000       0.11593000       0.95428000
     9  C          0.02933000       0.00493000       0.13112000
    10  C          0.97067000      -0.00493000       0.86888000
    11  C          0.14003000       0.13053000       0.08762000
    12  C          0.85997000       0.86947000       0.91238000
    13  H          0.18450000       0.13940000       0.29630000
    14  H          0.81550000       0.86060000       0.70370000
    15  I          0.28507300       0.79359200       0.92228200
    16  I          0.71492700       0.20640800       0.07771800
    17  O          0.95003000       0.50022000       0.75869170
    18  O          0.04997000       0.49978000       0.24130830
    19  O          0.73503000       0.27252000       0.81407180
    20  O          0.26497000       0.72748000       0.18592820
    21  C          0.11703000       0.62233000       0.97052000
    22  C          0.88297000       0.37767000       0.02948000
    23  C         -0.02146000       0.50523000       0.87132000
    24  C          0.02146000       0.49477000       0.12868000
    25  C          0.85883000       0.37753000       0.90632000
    26  C          0.14117000       0.62247000       0.09368000
    27  H          0.76350000       0.31350000       0.72040000
    28  H          0.23650000       0.68650000       0.27960000
    29  N          0.28393000       0.25703000       0.44462000
    30  N          0.71607000       0.74297000       0.55538000
    31  N          0.68353000       0.21573000       0.56692000
    32  N          0.31647000       0.78427000       0.43308000
    33  C          0.18554000       0.33574000       0.47693000
    34  C          0.81446000       0.66426000       0.52307000
    35  H          0.07770600       0.31058000       0.42199800
    36  H          0.92229400       0.68942000       0.57800200
    37  C          0.23754000       0.45233000       0.58843000
    38  C          0.76246000       0.54767000       0.41157000
    39  H          0.16534700       0.50315700       0.61016100
    40  H          0.83465300       0.49684300       0.38983900
    41  C          0.40084000       0.49163000       0.66713000
    42  C          0.59916000       0.50837000       0.33287000
    43  H          0.43992900       0.56964700       0.74314100
    44  H          0.56007100       0.43035300       0.25685900
    45  C          0.50504000       0.41433000       0.63222000
    46  C          0.49496000       0.58567000       0.36778000
    47  H          0.61617100       0.44196200       0.68292800
    48  H          0.38382900       0.55803800       0.31707200
    49  C          0.44193000       0.29463000       0.52032000
    50  C          0.55807000       0.70537000       0.47968000
    51  C          0.78534000       0.14034000       0.53423000
    52  C          0.21466000       0.85966000       0.46577000
    53  H          0.88100700       0.15026900       0.59609200
    54  H          0.11899300       0.84973100       0.40390800
    55  C          0.75434000       0.04933000       0.41353000
    56  C          0.24566000       0.95067000       0.58647000
    57  H          0.82742600      -0.00114000       0.39324700
    58  H          0.17257400       0.00114000       0.60675300
    59  C          0.61124000       0.03483000       0.32283000
    60  C          0.38876000       0.96517000       0.67717000
    61  H          0.58484500       0.97187300       0.24048500
    62  H          0.41515500       0.02812700       0.75951500
    63  C          0.50794000       0.11383000       0.35452000
    64  C          0.49206000       0.88617000       0.64548000
    65  H          0.41238300       0.10592100       0.29358200
    66  H          0.58761700       0.89407900       0.70641800
    67  C          0.54763000       0.20543000       0.47832000
    68  C          0.45237000       0.79457000       0.52168000
