data_COYXAQ
_symmetry_space_group_name_H-M    'P1'
_symmetry_Int_Tables_number       1
loop_
_symmetry_equiv_pos_site_id
_symmetry_equiv_pos_as_xyz
1 x,y,z
_cell_length_a                   11.80934
_cell_length_b                   14.64756
_cell_length_c                   16.00277
_cell_angle_alpha                102.7732
_cell_angle_beta                 94.2423
_cell_angle_gamma                94.9683
loop_
_atom_site_label
_atom_site_type_symbol
_atom_site_fract_x
_atom_site_fract_y
_atom_site_fract_z
     1  C          0.69834000       0.44744000       0.04513000
     2  C          0.30166000       0.55256000       0.95487000
     3  C          0.65094000       0.46124000       0.96627000
     4  C          0.34906000       0.53876000       0.03373000
     5  C          0.55204000       0.40494000       0.92417000
     6  C          0.44796000       0.59506000       0.07583000
     7  C          0.49894000       0.33524000       0.96027000
     8  C          0.50106000       0.66476000       0.03973000
     9  C          0.54394000       0.32163000       0.03933000
    10  C          0.45606000       0.67837000       0.96067000
    11  C          0.64304000       0.37904000       0.08283000
    12  C          0.35696000       0.62096000       0.91717000
    13  C          0.70425000       0.53894000       0.92807000
    14  C          0.29575000       0.46106000       0.07193000
    15  H          0.76930000       0.51710000       0.89770000
    16  H          0.23070000       0.48290000       0.10230000
    17  H          0.73030000       0.59450000       0.97430000
    18  H          0.26970000       0.40550000       0.02570000
    19  H          0.64730000       0.55540000       0.88770000
    20  H          0.35270000       0.44460000       0.11230000
    21  C          0.50424000       0.41964000       0.83927000
    22  C          0.49576000       0.58036000       0.16073000
    23  H          0.43030000       0.38020000       0.82120000
    24  H          0.56970000       0.61980000       0.17880000
    25  H          0.48980000       0.48630000       0.84590000
    26  H          0.51020000       0.51370000       0.15410000
    27  N          0.58254000       0.39533000       0.77247000
    28  N          0.41746000       0.60467000       0.22753000
    29  C          0.67655000       0.34955000       0.77316000
    30  C          0.32345000       0.65045000       0.22684000
    31  H          0.70590000       0.32310000       0.81840000
    32  H          0.29410000       0.67690000       0.18160000
    33  C          0.72136000       0.34825000       0.69775000
    34  C          0.27864000       0.65175000       0.30225000
    35  H          0.78660000       0.31820000       0.68020000
    36  H          0.21340000       0.68180000       0.31980000
    37  N          0.65906000       0.39576000       0.65146000
    38  N          0.34094000       0.60424000       0.34854000
    39  C          0.57767000       0.42317000       0.69905000
    40  C          0.42233000       0.57683000       0.30095000
    41  H          0.52050000       0.45930000       0.68280000
    42  H          0.47950000       0.54070000       0.31720000
    43  C          0.39254000       0.27714000       0.91046000
    44  C          0.60746000       0.72286000       0.08954000
    45  H          0.36030000       0.23490000       0.94450000
    46  H          0.63970000       0.76510000       0.05550000
    47  H          0.41240000       0.23970000       0.85590000
    48  H          0.58760000       0.76030000       0.14410000
    49  H          0.33600000       0.31910000       0.89900000
    50  H          0.66400000       0.68090000       0.10100000
    51  C          0.68334000       0.37244000       0.17213000
    52  C          0.31666000       0.62756000       0.82787000
    53  H          0.61740000       0.35810000       0.20250000
    54  H          0.38260000       0.64190000       0.79750000
    55  H          0.72510000       0.43250000       0.20310000
    56  H          0.27490000       0.56750000       0.79690000
    57  H          0.73380000       0.32230000       0.16900000
    58  H          0.26620000       0.67770000       0.83100000
    59  C          0.48424000       0.24984000       0.08343000
    60  C          0.51576000       0.75016000       0.91657000
    61  H          0.45430000       0.28540000       0.13570000
    62  H          0.54570000       0.71460000       0.86430000
    63  H          0.41770000       0.21610000       0.04410000
    64  H          0.58230000       0.78390000       0.95590000
    65  C          0.55474000       0.17613000       0.10973000
    66  C          0.44526000       0.82387000       0.89027000
    67  C          0.56114000       0.16364000       0.19453000
    68  C          0.43886000       0.83636000       0.80547000
    69  C          0.62674000       0.09584000       0.21663000
    70  C          0.37326000       0.90416000       0.78337000
    71  C          0.68774000       0.04113000       0.15613000
    72  C          0.31226000       0.95887000       0.84387000
    73  C          0.68254000       0.05303000       0.07123000
    74  C          0.31746000       0.94697000       0.92877000
    75  C          0.61134000       0.11803000       0.04713000
    76  C          0.38866000       0.88197000       0.95287000
    77  C          0.49625000       0.21984000       0.26293000
    78  C          0.50375000       0.78016000       0.73707000
    79  H          0.46850000       0.17960000       0.30020000
    80  H          0.53150000       0.82040000       0.69980000
    81  H          0.43120000       0.24290000       0.23530000
    82  H          0.56880000       0.75710000       0.76470000
    83  H          0.54700000       0.27350000       0.29760000
    84  H          0.45300000       0.72650000       0.70240000
    85  C          0.63594000       0.08514000       0.30903000
    86  C          0.36406000       0.91486000       0.69097000
    87  H          0.70860000       0.05950000       0.32110000
    88  H          0.29140000       0.94050000       0.67890000
    89  H          0.63790000       0.14800000       0.34810000
    90  H          0.36210000       0.85200000       0.65190000
    91  N          0.54123000       0.02323000       0.32703000
    92  N          0.45877000       0.97677000       0.67297000
    93  C          0.48055000       0.04154000       0.39584000
    94  C          0.51945000       0.95846000       0.60416000
    95  H          0.49190000       0.09850000       0.43890000
    96  H          0.50810000       0.90150000       0.56110000
    97  N          0.40304000       0.97036000       0.39603000
    98  N          0.59696000       0.02964000       0.60397000
    99  C          0.41795000       0.90216000       0.32504000
   100  C          0.58205000       0.09784000       0.67496000
   101  H          0.37570000       0.84170000       0.30840000
   102  H          0.62430000       0.15830000       0.69160000
   103  C          0.50115000       0.93366000       0.28234000
   104  C          0.49885000       0.06634000       0.71766000
   105  H          0.52720000       0.90020000       0.23070000
   106  H          0.47280000       0.09980000       0.76930000
   107  C          0.75574000       0.96546000       0.18073000
   108  C          0.24426000       0.03454000       0.81927000
   109  H          0.83700000      -0.01110000       0.19100000
   110  H          0.16300000       0.01110000       0.80900000
   111  H          0.74450000       0.90890000       0.13380000
   112  H          0.25550000       0.09110000       0.86620000
   113  H          0.72940000       0.95020000       0.23310000
   114  H          0.27060000       0.04980000       0.76690000
   115  C          0.59254000       0.12094000       0.95447000
   116  C          0.40746000       0.87906000       0.04553000
   117  H          0.51820000       0.14320000       0.94360000
   118  H          0.48180000       0.85680000       0.05640000
   119  H          0.59400000       0.05750000       0.91850000
   120  H          0.40600000       0.94250000       0.08150000
   121  H          0.65300000       0.16370000       0.94070000
   122  H          0.34700000       0.83630000       0.05930000
   123  C          0.74894000      -0.00323000       0.00343000
   124  C          0.25106000       0.00323000      -0.00343000
   125  H          0.69310000       0.95440000       0.95960000
   126  H          0.30690000       0.04560000       0.04040000
   127  H          0.79480000       0.95650000       0.03140000
   128  H          0.20520000       0.04350000       0.96860000
   129  C          0.82874000       0.05133000       0.95667000
   130  C          0.17126000       0.94867000       0.04333000
   131  C          0.81974000       0.03253000       0.86687000
   132  C          0.18026000       0.96747000       0.13313000
   133  C          0.89314000       0.08523000       0.82587000
   134  C          0.10686000       0.91477000       0.17413000
   135  C          0.97754000       0.15644000       0.87367000
   136  C          0.02246000       0.84356000       0.12633000
   137  C          0.98584000       0.17453000       0.96367000
   138  C          0.01416000       0.82547000       0.03633000
   139  C          0.91424000       0.11893000       0.00533000
   140  C          0.08576000       0.88107000      -0.00533000
   141  C          0.73464000       0.95416000       0.81297000
   142  C          0.26536000       0.04584000       0.18703000
   143  H          0.66200000       0.97930000       0.80200000
   144  H          0.33800000       0.02070000       0.19800000
   145  H          0.72210000       0.90410000       0.84400000
   146  H          0.27790000       0.09590000       0.15600000
   147  H          0.76460000       0.92870000       0.75810000
   148  H          0.23540000       0.07130000       0.24190000
   149  C          0.87954000       0.07184000       0.72857000
   150  C          0.12046000       0.92816000       0.27143000
   151  H          0.80020000       0.04490000       0.70680000
   152  H          0.19980000       0.95510000       0.29320000
   153  H          0.89190000       0.13400000       0.71430000
   154  H          0.10810000       0.86600000       0.28570000
   155  N          0.95983000       0.00903000       0.68407000
   156  N          0.04017000      -0.00903000       0.31593000
   157  C          0.02725000       0.03004000       0.62507000
   158  C          0.97275000       0.96996000       0.37493000
   159  H          0.03100000       0.08770000       0.60710000
   160  H          0.96900000       0.91230000       0.39290000
   161  N          0.08814000       0.95867000       0.59507000
   162  N          0.91186000       0.04133000       0.40493000
   163  C          0.05435000       0.89066000       0.63656000
   164  C          0.94565000       0.10934000       0.36344000
   165  H          0.08180000       0.83060000       0.62780000
   166  H          0.91820000       0.16940000       0.37220000
   167  C          0.97605000       0.91976000       0.69227000
   168  C          0.02395000       0.08024000       0.30773000
   169  H          0.94020000       0.88570000       0.72890000
   170  H          0.05980000       0.11430000       0.27110000
   171  C          0.05464000       0.20994000       0.82517000
   172  C          0.94536000       0.79006000       0.17483000
   173  H          0.01080000       0.25260000       0.80000000
   174  H         -0.01080000       0.74740000       0.20000000
   175  H          0.08480000       0.16520000       0.77940000
   176  H          0.91520000       0.83480000       0.22060000
   177  H          0.11800000       0.24630000       0.86500000
   178  H          0.88200000       0.75370000       0.13500000
   179  C          0.93454000       0.12974000       0.10053000
   180  C          0.06546000       0.87026000       0.89947000
   181  H          0.88290000       0.17250000       0.12960000
   182  H          0.11710000       0.82750000       0.87040000
   183  H          0.01390000       0.15540000       0.12000000
   184  H         -0.01390000       0.84460000       0.88000000
   185  H          0.92010000       0.06800000       0.11440000
   186  H          0.07990000       0.93200000       0.88560000
   187  C          0.07374000       0.25234000       0.01943000
   188  C          0.92626000       0.74766000       0.98057000
   189  H          0.13010000       0.22130000       0.04930000
   190  H          0.86990000       0.77870000       0.95070000
   191  H          0.11510000       0.28360000       0.98010000
   192  H          0.88490000       0.71640000       0.01990000
   193  C          0.03014000       0.32904000       0.08723000
   194  C          0.96986000       0.67096000       0.91277000
   195  C          0.07794000       0.35244000       0.17293000
   196  C          0.92206000       0.64756000       0.82707000
   197  C          0.04004000       0.42704000       0.23203000
   198  C          0.95996000       0.57296000       0.76797000
   199  C          0.95244000       0.47734000       0.20623000
   200  C          0.04756000       0.52266000       0.79377000
   201  C          0.90494000       0.45323000       0.12093000
   202  C          0.09506000       0.54677000       0.87907000
   203  C          0.94584000       0.38144000       0.06053000
   204  C          0.05416000       0.61856000       0.93947000
   205  C          0.17114000       0.30214000       0.20553000
   206  C          0.82886000       0.69786000       0.79447000
   207  H          0.18860000       0.25110000       0.15890000
   208  H          0.81140000       0.74890000       0.84110000
   209  H          0.14590000       0.27580000       0.25310000
   210  H          0.85410000       0.72420000       0.74690000
   211  H          0.23960000       0.34650000       0.22590000
   212  H          0.76040000       0.65350000       0.77410000
   213  C          0.09125000       0.45284000       0.32503000
   214  C          0.90875000       0.54716000       0.67497000
   215  H          0.17010000       0.43510000       0.32780000
   216  H          0.82990000       0.56490000       0.67220000
   217  H          0.09500000       0.52190000       0.34680000
   218  H          0.90500000       0.47810000       0.65320000
   219  N          0.02494000       0.40603000       0.38093000
   220  N          0.97506000       0.59397000       0.61907000
   221  C          0.06035000       0.39714000       0.45853000
   222  C          0.93965000       0.60286000       0.54147000
   223  H          0.13680000       0.41510000       0.48340000
   224  H          0.86320000       0.58490000       0.51660000
   225  N          0.98014000       0.36103000       0.49863000
   226  N          0.01986000       0.63897000       0.50137000
   227  C          0.88345000       0.34934000       0.44274000
   228  C          0.11655000       0.65066000       0.55726000
   229  H          0.80940000       0.32650000       0.45340000
   230  H          0.19060000       0.67350000       0.54660000
   231  C          0.90995000       0.37534000       0.36964000
   232  C          0.09005000       0.62466000       0.63036000
   233  H          0.85900000       0.37280000       0.32010000
   234  H          0.14100000       0.62720000       0.67990000
   235  C          0.91445000       0.55814000       0.27084000
   236  C          0.08555000       0.44186000       0.72916000
   237  H          0.95360000       0.61760000       0.26430000
   238  H          0.04640000       0.38240000       0.73570000
   239  H          0.93330000       0.55010000       0.32920000
   240  H          0.06670000       0.44990000       0.67080000
   241  H          0.83170000       0.55900000       0.26050000
   242  H          0.16830000       0.44100000       0.73950000
   243  C          0.90395000       0.36594000       0.96727000
   244  C          0.09605000       0.63406000       0.03273000
   245  H          0.96410000       0.34270000       0.93180000
   246  H          0.03590000       0.65730000       0.06820000
   247  H          0.88370000       0.42540000       0.95500000
   248  H          0.11630000       0.57460000       0.04500000
   249  H          0.83640000       0.31940000       0.95400000
   250  H          0.16360000       0.68060000       0.04600000
   251  C          0.80844000       0.50624000       0.09073000
   252  C          0.19156000       0.49376000       0.90927000
   253  H          0.78790000       0.55140000       0.14170000
   254  H          0.21210000       0.44860000       0.85830000
   255  H          0.83930000       0.54340000       0.05130000
   256  H          0.16070000       0.45660000       0.94870000
   257  C          0.22718000       0.17801000       0.50427000
   258  C          0.77282000       0.82199000       0.49573000
   259  H          0.15900000       0.20840000       0.52380000
   260  H          0.84100000       0.79160000       0.47620000
   261  H          0.20160000       0.11110000       0.47690000
   262  H          0.79840000       0.88890000       0.52310000
   263  C          0.31191100       0.18221300       0.58388000
   264  C          0.68808900       0.81778700       0.41612000
   265  H          0.31140000       0.11790000       0.59400000
   266  H          0.68860000       0.88210000       0.40600000
   267  H          0.38950000       0.20090000       0.56980000
   268  H          0.61050000       0.79910000       0.43020000
   269  Cl         0.28159180       0.23139170       0.42757150
   270  Cl         0.71840820       0.76860830       0.57242850
   271  Cl         0.29033000       0.24763000       0.66622000
   272  Cl         0.70967000       0.75237000       0.33378000
   273  C          0.54371000       0.53358000       0.50937000
   274  C          0.45629000       0.46642000       0.49063000
   275  H          0.58180000       0.53950000       0.56780000
   276  H          0.41820000       0.46050000       0.43220000
   277  H          0.52060000       0.59520000       0.50320000
   278  H          0.47940000       0.40480000       0.49680000
   279  Cl         0.63869180       0.48070190       0.41989160
   280  Cl         0.36130820       0.51929810       0.58010840
   281  O          0.94634000       0.23743000       0.61182000
   282  O          0.05366000       0.76257000       0.38818000
   283  O          0.76103000       0.11193000       0.52082000
   284  O          0.23897000       0.88807000       0.47918000
   285  O          0.62035000       0.24934000       0.49103000
   286  O          0.37965000       0.75066000       0.50897000
