data_CSATBR
_symmetry_space_group_name_H-M    'P1'
_symmetry_Int_Tables_number       1
loop_
_symmetry_equiv_pos_site_id
_symmetry_equiv_pos_as_xyz
1 x,y,z
_cell_length_a                   18.4482
_cell_length_b                   9.0572
_cell_length_c                   7.2582
_cell_angle_alpha                108.123
_cell_angle_beta                 86.123
_cell_angle_gamma                105.722
loop_
_atom_site_label
_atom_site_type_symbol
_atom_site_fract_x
_atom_site_fract_y
_atom_site_fract_z
     1  Cl         0.52810000       0.35440000       0.25660000
     2  Cl         0.47190000       0.64560000       0.74340000
     3  C          0.54010000       0.91140000       0.21410000
     4  C          0.45990000       0.08860000       0.78590000
     5  C          0.46590000       0.83630000       0.25510000
     6  C          0.53410000       0.16370000       0.74490000
     7  C          0.41250000       0.92670000       0.30110000
     8  C          0.58750000       0.07330000       0.69890000
     9  C          0.43200000       0.08270000       0.30150000
    10  C          0.56800000       0.91730000       0.69850000
    11  C          0.50460000       0.15540000       0.25670000
    12  C          0.49540000       0.84460000       0.74330000
    13  C          0.55840000       0.07020000       0.21620000
    14  C          0.44160000       0.92980000       0.78380000
    15  C          0.59640000       0.81690000       0.16820000
    16  C          0.40360000       0.18310000       0.83180000
    17  H          0.36760000       0.88690000       0.34990000
    18  H          0.63240000       0.11310000       0.65010000
    19  H          0.39760000       0.14070000       0.33300000
    20  H          0.60240000       0.85930000       0.66700000
    21  H          0.60840000       0.11410000       0.17840000
    22  H          0.39160000       0.88590000       0.82160000
    23  H          0.69130000       0.83340000       0.10560000
    24  H          0.30870000       0.16660000       0.89440000
    25  H          0.47450000       0.64070000       0.20590000
    26  H          0.52550000       0.35930000       0.79410000
    27  O          0.66230000       0.89530000       0.12260000
    28  O          0.33770000       0.10470000       0.87740000
    29  O          0.58300000       0.68080000       0.17580000
    30  O          0.41700000       0.31920000       0.82420000
    31  O          0.44290000       0.68300000       0.25550000
    32  O          0.55710000       0.31700000       0.74450000
    33  Cl         0.22270000       0.06100000       0.39350000
    34  Cl         0.77730000       0.93900000       0.60650000
    35  C          0.16150000       0.44810000       0.37900000
    36  C          0.83850000       0.55190000       0.62100000
    37  C          0.22880000       0.56950000       0.43470000
    38  C          0.77120000       0.43050000       0.56530000
    39  C          0.29270000       0.53380000       0.47640000
    40  C          0.70730000       0.46620000       0.52360000
    41  C          0.29070000       0.37780000       0.46590000
    42  C          0.70930000       0.62220000       0.53410000
    43  C          0.22290000       0.25560000       0.40780000
    44  C          0.77710000       0.74440000       0.59220000
    45  C          0.15930000       0.28960000       0.36530000
    46  C          0.84070000       0.71040000       0.63470000
    47  C          0.09560000       0.48880000       0.33230000
    48  C          0.90440000       0.51120000       0.66770000
    49  H          0.34610000       0.62010000       0.52670000
    50  H          0.65390000       0.37990000       0.47330000
    51  H          0.35200000       0.34780000       0.53680000
    52  H          0.64800000       0.65220000       0.46320000
    53  H          0.12020000       0.23130000       0.32060000
    54  H          0.87980000       0.76870000       0.67940000
    55  H          0.00290000       0.40300000       0.26030000
    56  H         -0.00290000       0.59700000       0.73970000
    57  H          0.20000000       0.73610000       0.43240000
    58  H          0.80000000       0.26390000       0.56760000
    59  O          0.03610000       0.36610000       0.27740000
    60  O          0.96390000       0.63390000       0.72260000
    61  O          0.09520000       0.62540000       0.33840000
    62  O          0.90480000       0.37460000       0.66160000
    63  O          0.23450000       0.72430000       0.45340000
    64  O          0.76550000       0.27570000       0.54660000
    65  C          0.87940000       0.01270000       0.16510000
    66  C          0.12060000      -0.01270000       0.83490000
    67  C          0.75330000       0.29320000       0.03430000
    68  C          0.24670000       0.70680000       0.96570000
    69  C          0.95800000       0.85080000       0.21830000
    70  C          0.04200000       0.14920000       0.78170000
    71  C          0.82970000       0.71880000       0.12250000
    72  C          0.17030000       0.28120000       0.87750000
    73  C          0.83970000       0.57430000       0.11710000
    74  C          0.16030000       0.42570000       0.88290000
    75  C          0.90860000       0.55590000       0.17160000
    76  C          0.09140000       0.44410000       0.82840000
    77  C          0.72570000       0.54810000       0.03730000
    78  C          0.27430000       0.45190000       0.96270000
    79  H          0.00250000       0.70580000       0.25050000
    80  H         -0.00250000       0.29420000       0.74950000
    81  H          0.67400000       0.51090000       0.02030000
    82  H          0.32600000       0.48910000       0.97970000
    83  H          0.88050000       0.01330000       0.02960000
    84  H          0.11950000      -0.01330000       0.97040000
    85  H          0.84230000       0.03880000       0.21120000
    86  H          0.15770000       0.96120000       0.78880000
    87  H          0.90520000       0.12270000       0.28520000
    88  H          0.09480000       0.87730000       0.71480000
    89  H          0.79670000       0.24650000       0.93830000
    90  H          0.20330000       0.75350000       0.06170000
    91  H          0.75360000       0.27570000       0.16650000
    92  H          0.24640000       0.72430000       0.83350000
    93  H          0.70150000       0.23860000       0.97800000
    94  H          0.29850000       0.76140000       0.02200000
    95  N          0.96230000       0.70120000       0.22040000
    96  N          0.03770000       0.29880000       0.77960000
    97  N          0.88770000       0.85890000       0.17160000
    98  N          0.11230000       0.14110000       0.82840000
    99  N          0.77110000       0.46340000       0.06160000
   100  N          0.22890000       0.53660000       0.93840000
   101  N          0.75850000       0.70510000       0.07450000
   102  N          0.24150000       0.29490000       0.92550000
   103  O          0.92000000       0.43080000       0.17820000
   104  O          0.08000000       0.56920000       0.82180000
   105  O          0.01190000       0.96680000       0.25600000
   106  O          0.98810000       0.03320000       0.74400000
