data_CUCGAM
_symmetry_space_group_name_H-M    'P1'
_symmetry_Int_Tables_number       1
loop_
_symmetry_equiv_pos_site_id
_symmetry_equiv_pos_as_xyz
1 x,y,z
_cell_length_a                   9.0442
_cell_length_b                   11.3402
_cell_length_c                   11.8123
_cell_angle_alpha                95.47017
_cell_angle_beta                 105.462
_cell_angle_gamma                90.08418
loop_
_atom_site_label
_atom_site_type_symbol
_atom_site_fract_x
_atom_site_fract_y
_atom_site_fract_z
     1  C          0.26017000       0.13186000       0.46256000
     2  C          0.73983000       0.86814000       0.53744000
     3  C          0.12767000       0.05955000       0.47836000
     4  C          0.87233000       0.94045000       0.52164000
     5  C          0.13967000       0.00715000       0.58446000
     6  C          0.86033000      -0.00715000       0.41554000
     7  C         -0.01537000       0.05245000       0.39696000
     8  C          0.01537000       0.94755000       0.60304000
     9  Cl         0.31573190       0.01128150       0.68752170
    10  Cl         0.68426810      -0.01128150       0.31247830
    11  Cl         0.96738000       0.11624170       0.26641170
    12  Cl         0.03262000       0.88375830       0.73358830
    13  O          0.35175000       0.08224000       0.41445000
    14  O          0.64825000       0.91776000       0.58555000
    15  H          0.36244400       0.01389000       0.43208900
    16  H          0.63755600       0.98611000       0.56791100
    17  O          0.26775000       0.23714000       0.50455000
    18  O          0.73225000       0.76286000       0.49545000
    19  C          0.81177000       0.49356000       0.14656000
    20  C          0.18823000       0.50644000       0.85344000
    21  C          0.64827000       0.49576000       0.07465000
    22  C          0.35173000       0.50424000       0.92535000
    23  C          0.57587000       0.60306000       0.06046000
    24  C          0.42413000       0.39694000       0.93954000
    25  C          0.57017000       0.39365000       0.01516000
    26  C          0.42983000       0.60635000       0.98484000
    27  Cl         0.66892000       0.72942160       0.13764180
    28  Cl         0.33108000       0.27057840       0.86235820
    29  Cl         0.65872000       0.25842160       0.03852000
    30  Cl         0.34128000       0.74157840       0.96148000
    31  O          0.83235000       0.48085000       0.25704000
    32  O          0.16765000       0.51915000       0.74296000
    33  H          0.84102400       0.54618100       0.29465400
    34  H          0.15897600       0.45381900       0.70534600
    35  O          0.91495000       0.50005000       0.09834000
    36  O          0.08505000       0.49995000       0.90166000
    37  C          0.38958000       0.77415000       0.33487000
    38  C          0.61042000       0.22585000       0.66513000
    39  H          0.48401100       0.77709900       0.39098000
    40  H          0.51598900       0.22290100       0.60902000
    41  C          0.17248000       0.82496000       0.22097000
    42  C          0.82752000       0.17504000       0.77903000
    43  H          0.09119100       0.87056900       0.18500100
    44  H          0.90880900       0.12943100       0.81499900
    45  C          0.18517000       0.70866000       0.19476000
    46  C          0.81483000       0.29134000       0.80524000
    47  H          0.11483400       0.65865600       0.13874900
    48  H          0.88516600       0.34134400       0.86125100
    49  C          0.38086000       0.55995000       0.27325000
    50  C          0.61914000       0.44005000       0.72675000
    51  C          0.29847000       0.46605000       0.20536000
    52  C          0.70153000       0.53395000       0.79464000
    53  H          0.20670400       0.47842200       0.14983400
    54  H          0.79329600       0.52157800       0.85016600
    55  C          0.35047000       0.35145000       0.21855000
    56  C          0.64953000       0.64855000       0.78145000
    57  C          0.48437000       0.33205000       0.30335000
    58  C          0.51563000       0.66795000       0.69665000
    59  H          0.51597700       0.25547900       0.31731300
    60  H          0.48402300       0.74452100       0.68268700
    61  C          0.57006000       0.43035000       0.36695000
    62  C          0.42994000       0.56965000       0.63305000
    63  C          0.52046000       0.54415000       0.35525000
    64  C          0.47954000       0.45585000       0.64475000
    65  H          0.57791200       0.60836700       0.40052500
    66  H          0.42208800       0.39163300       0.59947500
    67  C          0.11658000       0.25357000       0.08177000
    68  C          0.88342000       0.74643000       0.91823000
    69  H          0.05491900       0.31939500       0.07791800
    70  H          0.94508100       0.68060500       0.92208200
    71  C          0.31429000       0.14096000       0.12947000
    72  C          0.68571000       0.85904000       0.87053000
    73  H          0.41076400       0.11231600       0.16274300
    74  H          0.58923600       0.88768400       0.83725700
    75  C          0.19479000       0.08027000       0.05267000
    76  C          0.80521000       0.91973000       0.94733000
    77  H          0.19663200       0.00122000       0.02351500
    78  H          0.80336800      -0.00122000       0.97648500
    79  C          0.79597000       0.49206000       0.53506000
    80  C          0.20403000       0.50794000       0.46494000
    81  H          0.76735100       0.56942400       0.54993300
    82  H          0.23264900       0.43057600       0.45006700
    83  C          0.79268000       0.30666000       0.45967000
    84  C          0.20732000       0.69334000       0.54033000
    85  H          0.76309300       0.23453600       0.41435600
    86  H          0.23690700       0.76546400       0.58564400
    87  C          0.92218000       0.33166000       0.54777000
    88  C          0.07782000       0.66834000       0.45223000
    89  H         -0.00148300       0.27774600       0.57294500
    90  H          0.00148300       0.72225400       0.42705500
    91  N          0.29906000       0.86585000       0.30935000
    92  N          0.70094000       0.13415000       0.69065000
    93  N          0.32346000       0.67724000       0.26735000
    94  N          0.67654000       0.32276000       0.73265000
    95  N          0.26416000       0.25354000       0.14835000
    96  N          0.73584000       0.74646000       0.85165000
    97  N          0.07087000       0.15056000       0.02356000
    98  N          0.92913000       0.84944000       0.97644000
    99  N          0.71335000       0.41154000       0.45114000
   100  N          0.28665000       0.58846000       0.54886000
   101  N          0.92526000       0.44415000       0.59365000
   102  N          0.07474000       0.55585000       0.40635000
