data_CUHCAN
_symmetry_space_group_name_H-M    'P1'
_symmetry_Int_Tables_number       1
loop_
_symmetry_equiv_pos_site_id
_symmetry_equiv_pos_as_xyz
1 x,y,z
_cell_length_a                   9.54229
_cell_length_b                   16.471411
_cell_length_c                   11.986811
_cell_angle_alpha                90.0
_cell_angle_beta                 111.46811
_cell_angle_gamma                90.0
loop_
_atom_site_label
_atom_site_type_symbol
_atom_site_fract_x
_atom_site_fract_y
_atom_site_fract_z
     1  S          0.85496110       0.08423500       0.22387800
     2  S          0.14503890       0.58423500       0.27612200
     3  S          0.14503890       0.91576500       0.77612200
     4  S          0.85496110       0.41576500       0.72387800
     5  O          0.83913000       0.34531150       0.01952000
     6  O          0.16087000       0.84531150       0.48048000
     7  O          0.16087000       0.65468850       0.98048000
     8  O          0.83913000       0.15468850       0.51952000
     9  O          0.86713000       0.34749160       0.42082000
    10  O          0.13287000       0.84749160       0.07918000
    11  O          0.13287000       0.65250840       0.57918000
    12  O          0.86713000       0.15250840       0.92082000
    13  N          0.85243000       0.22940160       0.12552000
    14  N          0.14757000       0.72940160       0.37448000
    15  N          0.14757000       0.77059840       0.87448000
    16  N          0.85243000       0.27059840       0.62552000
    17  H          0.85390000       0.20290000       0.06410000
    18  H          0.14610000       0.70290000       0.43590000
    19  H          0.14610000       0.79710000       0.93590000
    20  H          0.85390000       0.29710000       0.56410000
    21  N          0.85823000       0.23066170       0.31802000
    22  N          0.14177000       0.73066170       0.18198000
    23  N          0.14177000       0.76933830       0.68198000
    24  N          0.85823000       0.26933830       0.81802000
    25  H          0.85900000       0.20450000       0.38040000
    26  H          0.14100000       0.70450000       0.11960000
    27  H          0.14100000       0.79550000       0.61960000
    28  H          0.85900000       0.29550000       0.88040000
    29  C          0.85223000       0.35633190       0.21993000
    30  C          0.14777000       0.85633190       0.28007000
    31  C          0.14777000       0.64366810       0.78007000
    32  C          0.85223000       0.14366810       0.71993000
    33  H          0.76320000       0.39040000       0.19650000
    34  H          0.23680000       0.89040000       0.30350000
    35  H          0.23680000       0.60960000       0.80350000
    36  H          0.76320000       0.10960000       0.69650000
    37  H          0.93830000       0.39250000       0.24140000
    38  H          0.06170000       0.89250000       0.25860000
    39  H          0.06170000       0.60750000       0.75860000
    40  H          0.93830000       0.10750000       0.74140000
    41  C          0.86043000       0.31552000       0.32403000
    42  C          0.13957000       0.81552000       0.17597000
    43  C          0.13957000       0.68448000       0.67597000
    44  C          0.86043000       0.18448000       0.82403000
    45  C          0.85483000       0.18672000       0.22243000
    46  C          0.14517000       0.68672000       0.27757000
    47  C          0.14517000       0.81328000       0.77757000
    48  C          0.85483000       0.31328000       0.72243000
    49  C          0.84763000       0.31442000       0.11903000
    50  C          0.15237000       0.81442000       0.38097000
    51  C          0.15237000       0.68558000       0.88097000
    52  C          0.84763000       0.18558000       0.61903000
    53  N          0.30633000       0.51066180       0.06122000
    54  N          0.69367000       0.01066180       0.43878000
    55  N          0.69367000       0.48933820       0.93878000
    56  N          0.30633000       0.98933820       0.56122000
    57  N          0.54193000       0.61252180       0.16303000
    58  N          0.45807000       0.11252180       0.33697000
    59  N          0.45807000       0.38747820       0.83697000
    60  N          0.54193000       0.88747820       0.66303000
    61  N          0.49924000       0.77762000       0.09094000
    62  N          0.50076000       0.27762000       0.40906000
    63  N          0.50076000       0.22238000       0.90906000
    64  N          0.49924000       0.72238000       0.59094000
    65  C          0.19174000       0.46473000      -0.00674000
    66  C          0.80826000       0.96473000       0.50674000
    67  C          0.80826000       0.53527000       0.00674000
    68  C          0.19174000       0.03527000       0.49326000
    69  H          0.10390000       0.48900000       0.94190000
    70  H          0.89610000       0.98900000       0.55810000
    71  H          0.89610000       0.51100000       0.05810000
    72  H          0.10390000       0.01100000       0.44190000
    73  C          0.20305000       0.38103000      -0.00094000
    74  C          0.79695000       0.88103000       0.50094000
    75  C          0.79695000       0.61897000       0.00094000
    76  C          0.20305000       0.11897000       0.49906000
    77  H          0.12350000       0.34860000       0.95230000
    78  H          0.87650000       0.84860000       0.54770000
    79  H          0.87650000       0.65140000       0.04770000
    80  H          0.12350000       0.15140000       0.45230000
    81  C          0.33415000       0.34702000       0.07544000
    82  C          0.66585000       0.84702000       0.42456000
    83  C          0.66585000       0.65298000       0.92456000
    84  C          0.33415000       0.15298000       0.57544000
    85  H          0.34440000       0.29090000       0.08020000
    86  H          0.65560000       0.79090000       0.41980000
    87  H          0.65560000       0.70910000       0.91980000
    88  H          0.34440000       0.20910000       0.58020000
    89  C          0.45094000       0.39582000       0.14524000
    90  C          0.54906000       0.89582000       0.35476000
    91  C          0.54906000       0.60418000       0.85476000
    92  C          0.45094000       0.10418000       0.64524000
    93  H          0.53940000       0.37240000       0.19710000
    94  H          0.46060000       0.87240000       0.30290000
    95  H          0.46060000       0.62760000       0.80290000
    96  H          0.53940000       0.12760000       0.69710000
    97  C          0.43654000       0.47972000       0.13793000
    98  C          0.56346000       0.97972000       0.36207000
    99  C          0.56346000       0.52028000       0.86207000
   100  C          0.43654000       0.02028000       0.63793000
   101  C          0.55564000       0.53702000       0.20733000
   102  C          0.44436000       0.03702000       0.29267000
   103  C          0.44436000       0.46298000       0.79267000
   104  C          0.55564000       0.96298000       0.70733000
   105  C          0.67474000       0.51172000       0.30723000
   106  C          0.32526000       0.01172000       0.19277000
   107  C          0.32526000       0.48828000       0.69277000
   108  C          0.67474000       0.98828000       0.80723000
   109  H          0.67900000       0.45880000       0.33550000
   110  H          0.32100000       0.95880000       0.16450000
   111  H          0.32100000       0.54120000       0.66450000
   112  H          0.67900000       0.04120000       0.83550000
   113  C          0.78754000       0.56692000       0.36424000
   114  C          0.21246000       0.06692000       0.13576000
   115  C          0.21246000       0.43308000       0.63576000
   116  C          0.78754000       0.93308000       0.86424000
   117  H          0.86910000       0.55180000       0.43200000
   118  H          0.13090000       0.05180000       0.06800000
   119  H          0.13090000       0.44820000       0.56800000
   120  H          0.86910000       0.94820000       0.93200000
   121  C          0.77744000       0.64432000       0.31914000
   122  C          0.22256000       0.14432000       0.18086000
   123  C          0.22256000       0.35568000       0.68086000
   124  C          0.77744000       0.85568000       0.81914000
   125  H          0.85260000       0.68220000       0.35540000
   126  H          0.14740000       0.18220000       0.14460000
   127  H          0.14740000       0.31780000       0.64460000
   128  H          0.85260000       0.81780000       0.85540000
   129  C          0.65244000       0.66542000       0.21803000
   130  C          0.34756000       0.16542000       0.28197000
   131  C          0.34756000       0.33458000       0.78197000
   132  C          0.65244000       0.83458000       0.71803000
   133  C          0.63714000       0.74862000       0.16603000
   134  C          0.36286000       0.24862000       0.33397000
   135  C          0.36286000       0.25138000       0.83397000
   136  C          0.63714000       0.75138000       0.66603000
   137  C          0.76364000       0.79292000       0.19833000
   138  C          0.23636000       0.29292000       0.30167000
   139  C          0.23636000       0.20708000       0.80167000
   140  C          0.76364000       0.70708000       0.69833000
   141  H          0.85500000       0.77210000       0.24970000
   142  H          0.14500000       0.27210000       0.25030000
   143  H          0.14500000       0.22790000       0.75030000
   144  H          0.85500000       0.72790000       0.74970000
   145  C          0.75424000       0.86713000       0.15475000
   146  C          0.24576000       0.36713000       0.34525000
   147  C          0.24576000       0.13287000       0.84525000
   148  C          0.75424000       0.63287000       0.65475000
   149  H          0.84160000       0.89810000       0.17660000
   150  H          0.15840000       0.39810000       0.32340000
   151  H          0.15840000       0.10190000       0.82340000
   152  H          0.84160000       0.60190000       0.67660000
   153  C          0.62145000       0.90143000       0.07844000
   154  C          0.37855000       0.40143000       0.42156000
   155  C          0.37855000       0.09857000       0.92156000
   156  C          0.62145000       0.59857000       0.57844000
   157  H          0.61960000       0.95430000       0.05080000
   158  H          0.38040000       0.45430000       0.44920000
   159  H          0.38040000       0.04570000       0.94920000
   160  H          0.61960000       0.54570000       0.55080000
   161  C          0.49325000       0.85573000       0.04424000
   162  C          0.50675000       0.35573000       0.45576000
   163  C          0.50675000       0.14427000       0.95576000
   164  C          0.49325000       0.64427000       0.54424000
   165  H          0.40310000       0.87630000      -0.00940000
   166  H          0.59690000       0.37630000       0.50940000
   167  H          0.59690000       0.12370000       0.00940000
   168  H          0.40310000       0.62370000       0.49060000
