data_CUJNAX
_symmetry_space_group_name_H-M    'P1'
_symmetry_Int_Tables_number       1
loop_
_symmetry_equiv_pos_site_id
_symmetry_equiv_pos_as_xyz
1 x,y,z
_cell_length_a                   5.15064
_cell_length_b                   5.24814
_cell_length_c                   24.520616
_cell_angle_alpha                89.6474
_cell_angle_beta                 87.2524
_cell_angle_gamma                88.5055
loop_
_atom_site_label
_atom_site_type_symbol
_atom_site_fract_x
_atom_site_fract_y
_atom_site_fract_z
     1  N          0.37512000       0.26722170       0.23002300
     2  N          0.62488000       0.73277830       0.76997700
     3  C          0.20922000       0.46572000       0.23840400
     4  C          0.79078000       0.53428000       0.76159600
     5  H          0.06920000       0.48860000       0.21490000
     6  H          0.93080000       0.51140000       0.78510000
     7  C          0.23472000       0.64002000       0.28041400
     8  C          0.76528000       0.35998000       0.71958600
     9  H          0.11340000       0.77830000       0.28550000
    10  H          0.88660000       0.22170000       0.71450000
    11  C          0.44032000       0.60804190       0.31465400
    12  C          0.55968000       0.39195810       0.68534600
    13  C          0.61362000       0.40332190       0.30567400
    14  C          0.38638000       0.59667810       0.69432600
    15  H          0.75710000       0.37720000       0.32820000
    16  H          0.24290000       0.62280000       0.67180000
    17  C          0.57272000       0.23812000       0.26319400
    18  C          0.42728000       0.76188000       0.73680600
    19  H          0.69060000       0.09760000       0.25740000
    20  H          0.30940000       0.90240000       0.74260000
    21  C          0.49312000       0.79062190       0.35968400
    22  C          0.50688000       0.20937810       0.64031600
    23  N          0.28692000       0.91793170       0.38276300
    24  N          0.71308000       0.08206830       0.61723700
    25  H          0.11930000       0.87820000       0.37495000
    26  H          0.88070000       0.12180000       0.62505000
    27  O          0.71690170       0.81812150       0.37422300
    28  O          0.28309830       0.18187850       0.62577700
    29  C          0.32552000       0.09722000       0.42695400
    30  C          0.67448000       0.90278000       0.57304600
    31  H          0.46330000       0.21660000       0.41520000
    32  H          0.53670000       0.78340000       0.58480000
    33  H          0.38500000       0.00180000       0.45920000
    34  H          0.61500000      -0.00180000       0.54080000
    35  C          0.07902000       0.24802000       0.44289400
    36  C          0.92098000       0.75198000       0.55710600
    37  H          0.93890000       0.12910000       0.45340000
    38  H          0.06110000       0.87090000       0.54660000
    39  H          0.02330000       0.34980000       0.41120000
    40  H         -0.02330000       0.65020000       0.58880000
    41  C          0.12252000       0.42556190       0.49062400
    42  C          0.87748000       0.57443810       0.50937600
    43  H          0.18540000       0.32330000       0.52160000
    44  H          0.81460000       0.67670000       0.47840000
    45  H          0.25930000       0.54700000       0.47950000
    46  H          0.74070000       0.45300000       0.52050000
    47  C          0.57202000       0.76448000       0.14793400
    48  C          0.42798000       0.23552000       0.85206600
    49  O          0.37465180       0.93286850       0.14683300
    50  O          0.62534820       0.06713150       0.85316700
    51  H          0.37530000       0.04830000       0.17736000
    52  H          0.62470000       0.95170000       0.82264000
    53  O          0.73263180       0.76200850       0.18247300
    54  O          0.26736820       0.23799150       0.81752700
    55  C          0.56432000       0.57698000       0.10190400
    56  C          0.43568000       0.42302000       0.89809600
    57  H          0.52990000       0.67290000       0.06800000
    58  H          0.47010000       0.32710000       0.93200000
    59  H          0.41580000       0.46400000       0.10950000
    60  H          0.58420000       0.53600000       0.89050000
    61  C          0.80832000       0.41098000       0.09153400
    62  C          0.19168000       0.58902000       0.90846600
    63  H          0.83590000       0.29970000       0.12360000
    64  H          0.16410000       0.70030000       0.87640000
    65  H          0.96130000       0.52030000       0.08610000
    66  H          0.03870000       0.47970000       0.91390000
    67  C          0.78072000       0.24748000       0.04093400
    68  C          0.21928000       0.75252000       0.95906600
    69  H          0.62930000       0.13690000       0.04730000
    70  H          0.37070000       0.86310000       0.95270000
    71  H          0.74350000       0.36110000       0.00970000
    72  H          0.25650000       0.63890000       0.99030000
    73  C          0.01832000       0.08008000       0.02535400
    74  C         -0.01832000       0.91992000       0.97464600
    75  H          0.05600000       0.96520000       0.05630000
    76  H          0.94400000       0.03480000       0.94370000
    77  H          0.17020000       0.18970000       0.01860000
    78  H          0.82980000       0.81030000       0.98140000
