data_CUKNUT
_symmetry_space_group_name_H-M    'P1'
_symmetry_Int_Tables_number       1
loop_
_symmetry_equiv_pos_site_id
_symmetry_equiv_pos_as_xyz
1 x,y,z
_cell_length_a                   6.58853
_cell_length_b                   9.57054
_cell_length_c                   15.41246
_cell_angle_alpha                90.0
_cell_angle_beta                 96.8683
_cell_angle_gamma                90.0
loop_
_atom_site_label
_atom_site_type_symbol
_atom_site_fract_x
_atom_site_fract_y
_atom_site_fract_z
     1  O          0.41563000       0.95678000       0.52387130
     2  O          0.58437000       0.45678000       0.47612870
     3  O          0.95563000       0.35232000       0.23837110
     4  O          0.04437000       0.85232000       0.76162890
     5  O          0.72973000       0.36472000       0.33373120
     6  O          0.27027000       0.86472000       0.66626880
     7  C          0.28735000       0.04753000       0.47736170
     8  C          0.71265000       0.54753000       0.52263830
     9  C          0.35975000       0.11603000       0.40730170
    10  C          0.64025000       0.61603000       0.59269830
    11  H          0.49360000       0.10180000       0.39580000
    12  H          0.50640000       0.60180000       0.60420000
    13  C          0.03494000       0.23193000       0.37218160
    14  C          0.96506000       0.73193000       0.62781840
    15  C          0.23305000       0.20483000       0.35485160
    16  C          0.76695000       0.70483000       0.64514840
    17  H          0.28140000       0.24710000       0.30700000
    18  H          0.71860000       0.74710000       0.69300000
    19  C          0.09195000       0.07633000       0.49672170
    20  C          0.90805000       0.57633000       0.50327830
    21  H          0.04350000       0.03320000       0.54430000
    22  H          0.95650000       0.53320000       0.45570000
    23  C          0.96774000       0.16913000       0.44560170
    24  C          0.03226000       0.66913000       0.55439830
    25  H          0.83820000       0.18980000       0.46030000
    26  H          0.16180000       0.68980000       0.53970000
    27  C          0.89875000       0.32273000       0.31177170
    28  C          0.10125000       0.82273000       0.68822830
    29  H          0.35970000       0.92350000       0.57030000
    30  H          0.64030000       0.42350000       0.42970000
    31  N          0.58774000       0.89123000       0.28521150
    32  N          0.41226000       0.39123000       0.71478850
    33  C          0.41595000       0.81653000       0.27468180
    34  C          0.58405000       0.31653000       0.72531820
    35  C          0.22355000       0.61373000       0.30734190
    36  C          0.77645000       0.11373000       0.69265810
    37  H          0.21090000       0.53350000       0.34030000
    38  H          0.78910000       0.03350000       0.65970000
    39  N          0.07874000       0.64363000       0.24133170
    40  N          0.92126000       0.14363000       0.75866830
    41  C          0.75245000       0.85304000       0.35303190
    42  C          0.24755000       0.35304000       0.64696810
    43  H          0.70460000       0.86030000       0.40930000
    44  H          0.29540000       0.36030000       0.59070000
    45  H          0.86610000       0.91500000       0.35050000
    46  H          0.13390000       0.41500000       0.64950000
    47  H          0.79460000       0.75870000       0.34380000
    48  H          0.20540000       0.25870000       0.65620000
    49  C          0.09105000       0.76014000       0.19392190
    50  C          0.90895000       0.26014000       0.80607810
    51  H         -0.01350000       0.78110000       0.14980000
    52  H          0.01350000       0.28110000       0.85020000
    53  C          0.38815000       0.69803000       0.32714180
    54  C          0.61185000       0.19803000       0.67285820
    55  H          0.48280000       0.67790000       0.37520000
    56  H          0.51720000       0.17790000       0.62480000
    57  C          0.62426000       0.00154000       0.22312000
    58  C          0.37574000       0.50154000       0.77688000
    59  H          0.60970000       0.96380000       0.16500000
    60  H          0.39030000       0.46380000       0.83500000
    61  H          0.76000000       0.03760000       0.23730000
    62  H          0.24000000       0.53760000       0.76270000
    63  H          0.52680000       0.07530000       0.22640000
    64  H          0.47320000       0.57530000       0.77360000
    65  C          0.25275000       0.84813000       0.20891180
    66  C          0.74725000       0.34813000       0.79108820
    67  H          0.25660000       0.92930000       0.17600000
    68  H          0.74340000       0.42930000       0.82400000
    69  H          0.96550000       0.58740000       0.22520000
    70  H          0.03450000       0.08740000       0.77480000
    71  O          0.68233000       0.61132000       0.15947130
    72  O          0.31767000       0.11132000       0.84052870
    73  O          0.92006000       0.65682000       0.86557870
    74  O          0.07994000       0.15682000       0.13442130
    75  O          0.48763000       0.42982000       0.19131130
    76  O          0.51237000       0.92982000       0.80868870
    77  C          0.52975000       0.53843000       0.14321190
    78  C          0.47025000       0.03843000       0.85678810
    79  C          0.07185000       0.63123000       0.93150830
    80  C          0.92815000       0.13123000       0.06849170
    81  C          0.25485000       0.70513000       0.94178820
    82  C          0.74515000       0.20513000       0.05821180
    83  H          0.27700000       0.77640000       0.90300000
    84  H          0.72300000       0.27640000       0.09700000
    85  C          0.19125000       0.49043000       0.05637180
    86  C          0.80875000      -0.00957000       0.94362820
    87  H          0.17060000       0.41750000       0.09420000
    88  H          0.82940000       0.91750000       0.90580000
    89  C          0.40305000       0.67283000       0.00944190
    90  C          0.59695000       0.17283000       0.99055810
    91  H          0.52440000       0.72340000       0.01640000
    92  H          0.47560000       0.22340000       0.98360000
    93  C          0.37405000       0.56513000       0.06788170
    94  C          0.62595000       0.06513000       0.93211830
    95  C          0.03995000       0.52353000       0.98919820
    96  C          0.96005000       0.02353000       0.01080180
    97  H          0.91750000       0.47400000       0.98260000
    98  H          0.08250000       0.97400000       0.01740000
    99  H          0.58660000       0.41850000       0.24220000
   100  H          0.41340000       0.91850000       0.75780000
   101  H          0.95240000       0.71840000       0.82880000
   102  H          0.04760000       0.21840000       0.17120000
