data_CUKTUX
_symmetry_space_group_name_H-M    'P1'
_symmetry_Int_Tables_number       1
loop_
_symmetry_equiv_pos_site_id
_symmetry_equiv_pos_as_xyz
1 x,y,z
_cell_length_a                   10.9274
_cell_length_b                   11.3023
_cell_length_c                   15.4644
_cell_angle_alpha                95.272
_cell_angle_beta                 95.993
_cell_angle_gamma                112.663
loop_
_atom_site_label
_atom_site_type_symbol
_atom_site_fract_x
_atom_site_fract_y
_atom_site_fract_z
     1  P          0.73121900      -0.01299900       0.22810700
     2  P          0.26878100       0.01299900       0.77189300
     3  F          0.75544000       0.11273000       0.18872000
     4  F          0.24456000       0.88727000       0.81128000
     5  F          0.70434000       0.85483000       0.26492000
     6  F          0.29566000       0.14517000       0.73508000
     7  F          0.86373000       0.98464000       0.19763000
     8  F          0.13627000       0.01536000       0.80237000
     9  F          0.64833000       0.90493000       0.13598190
    10  F          0.35167000       0.09507000       0.86401810
    11  F          0.81083000       0.06293000       0.31872000
    12  F          0.18917000       0.93707000       0.68128000
    13  F          0.59782000      -0.01417000       0.25882000
    14  F          0.40218000       0.01417000       0.74118000
    15  N          0.03462000       0.78372000       0.13083140
    16  N          0.96538000       0.21628000       0.86916860
    17  N          0.17042000       0.82672000       0.14799160
    18  N          0.82958000       0.17328000       0.85200840
    19  N          0.29202000       0.71762000       0.51587150
    20  N          0.70798000       0.28238000       0.48412850
    21  N          0.37752000       0.78233000       0.46145160
    22  N          0.62248000       0.21767000       0.53854840
    23  N          0.21072000       0.35672000       0.21136160
    24  N          0.78928000       0.64328000       0.78863840
    25  N          0.29393000       0.47022000       0.18768180
    26  N          0.70607000       0.52978000       0.81231820
    27  C          0.01653000       0.52973000       0.21306170
    28  C         -0.01653000       0.47027000       0.78693830
    29  C          0.01023000       0.64433000       0.24955170
    30  C         -0.01023000       0.35567000       0.75044830
    31  C          0.05753000       0.69433000       0.33835180
    32  C          0.94247000       0.30567000       0.66164820
    33  C          0.10432000       0.62263000       0.39275170
    34  C          0.89568000       0.37737000       0.60724830
    35  C          0.10963000       0.50633000       0.35760180
    36  C          0.89037000       0.49367000       0.64239820
    37  C          0.06823000       0.46163000       0.26777180
    38  C          0.93177000       0.53837000       0.73222820
    39  C          0.96947000       0.48133000       0.11563180
    40  C          0.03053000       0.51867000       0.88436820
    41  H          0.02250000       0.43690000       0.09490000
    42  H          0.97750000       0.56310000       0.90510000
    43  H         -0.01510000       0.55440000       0.08480000
    44  H          0.01510000       0.44560000       0.91520000
    45  C          0.82086000       0.38983000       0.09362000
    46  C          0.17914000       0.61017000       0.90638000
    47  H          0.79720000       0.36430000       0.03120000
    48  H          0.20280000       0.63570000       0.96880000
    49  H          0.76710000       0.43350000       0.11390000
    50  H          0.23290000       0.56650000       0.88610000
    51  H          0.80540000       0.31440000       0.12200000
    52  H          0.19460000       0.68560000       0.87800000
    53  C          0.93726000       0.82084000       0.41242000
    54  C          0.06274000       0.17916000       0.58758000
    55  H          0.94730000       0.90710000       0.43350000
    56  H          0.05270000       0.09290000       0.56650000
    57  H          0.92570000       0.77070000       0.46010000
    58  H          0.07430000       0.22930000       0.53990000
    59  H          0.86020000       0.78120000       0.36760000
    60  H          0.13980000       0.21880000       0.63240000
    61  C          0.06253000       0.82623000       0.37442000
    62  C          0.93747000       0.17377000       0.62558000
    63  H          0.07480000       0.87880000       0.32810000
    64  H          0.92520000       0.12120000       0.67190000
    65  H          0.13920000       0.86760000       0.41940000
    66  H          0.86080000       0.13240000       0.58060000
    67  C          0.31043000       0.45544000       0.42222000
    68  C          0.68957000       0.54456000       0.57778000
    69  H          0.33240000       0.40310000       0.46140000
    70  H          0.66760000       0.59690000       0.53860000
    71  H          0.36350000       0.54530000       0.44350000
    72  H          0.63650000       0.45470000       0.55650000
    73  H          0.32860000       0.43420000       0.36470000
    74  H          0.67140000       0.56580000       0.63530000
    75  C          0.16153000       0.42943000       0.41732000
    76  C          0.83847000       0.57057000       0.58268000
    77  H          0.14450000       0.44770000       0.47570000
    78  H          0.85550000       0.55230000       0.52430000
    79  H          0.11020000       0.33880000       0.39750000
    80  H          0.88980000       0.66120000       0.60250000
    81  C          0.94747000       0.71383000       0.19142190
    82  C          0.05253000       0.28617000       0.80857810
    83  H          0.86510000       0.65140000       0.15800000
    84  H          0.13490000       0.34860000       0.84200000
    85  H          0.92600000       0.77410000       0.22810000
    86  H          0.07400000       0.22590000       0.77190000
    87  C          0.21303000       0.88593000       0.07882000
    88  C          0.78697000       0.11407000       0.92118000
    89  C          0.10614000       0.88053000       0.01932000
    90  C          0.89386000       0.11947000       0.98068000
    91  H          0.11060000       0.91600000       0.96510000
    92  H          0.88940000       0.08400000       0.03490000
    93  C         -0.00753000       0.81383000       0.05385180
    94  C          0.00753000       0.18617000       0.94614820
    95  C          0.35904000       0.94634000       0.07303000
    96  C          0.64096000       0.05366000       0.92697000
    97  H          0.40950000       0.93700000       0.12460000
    98  H          0.59050000       0.06300000       0.87540000
    99  H          0.38480000       0.03670000       0.06860000
   100  H          0.61520000       0.96330000       0.93140000
   101  H          0.37680000       0.90430000       0.02190000
   102  H          0.62320000       0.09570000       0.97810000
   103  C          0.84746000       0.77484000       0.01962000
   104  C          0.15254000       0.22516000       0.98038000
   105  H          0.79390000       0.72930000       0.06090000
   106  H          0.20610000       0.27070000       0.93910000
   107  H          0.82470000       0.71920000       0.96440000
   108  H          0.17530000       0.28080000       0.03560000
   109  H          0.83060000       0.85060000       0.01140000
   110  H          0.16940000       0.14940000       0.98860000
   111  C          0.14773000       0.67173000       0.48996180
   112  C          0.85227000       0.32827000       0.51003820
   113  H          0.12020000       0.74120000       0.50480000
   114  H          0.87980000       0.25880000       0.49520000
   115  H          0.10330000       0.60320000       0.52250000
   116  H          0.89670000       0.39680000       0.47750000
   117  C          0.49983000       0.81814000       0.50762000
   118  C          0.50017000       0.18186000       0.49238000
   119  C          0.49074000       0.77634000       0.58882000
   120  C          0.50926000       0.22366000       0.41118000
   121  H          0.56430000       0.78910000       0.63350000
   122  H          0.43570000       0.21090000       0.36650000
   123  C          0.35713000       0.71344000       0.59372000
   124  C          0.64287000       0.28656000       0.40628000
   125  C          0.62234000       0.89165000       0.46873000
   126  C          0.37766000       0.10835000       0.53127000
   127  H          0.59580000       0.90790000       0.41130000
   128  H          0.40420000       0.09210000       0.58870000
   129  H          0.67570000       0.84150000       0.46400000
   130  H          0.32430000       0.15850000       0.53600000
   131  H          0.67400000       0.97250000       0.50570000
   132  H          0.32600000       0.02750000       0.49430000
   133  C          0.28614000       0.64825000       0.66432000
   134  C          0.71386000       0.35175000       0.33568000
   135  H          0.19090000       0.61620000       0.64610000
   136  H          0.80910000       0.38380000       0.35390000
   137  H          0.31110000       0.70910000       0.71710000
   138  H          0.68890000       0.29090000       0.28290000
   139  H          0.31050000       0.57720000       0.67500000
   140  H          0.68950000       0.42280000       0.32500000
   141  C          0.07593000       0.33723000       0.22792000
   142  C          0.92407000       0.66277000       0.77208000
   143  H          0.04810000       0.27390000       0.26720000
   144  H          0.95190000       0.72610000       0.73280000
   145  H          0.01490000       0.30370000       0.17370000
   146  H         -0.01490000       0.69630000       0.82630000
   147  C          0.40243000       0.44974000       0.17122000
   148  C          0.59757000       0.55026000       0.82878000
   149  C          0.38763000       0.32504000       0.18362000
   150  C          0.61237000       0.67496000       0.81638000
   151  H          0.45120000       0.28690000       0.17570000
   152  H          0.54880000       0.71310000       0.82430000
   153  C          0.26433000       0.26693000       0.20922000
   154  C          0.73567000       0.73307000       0.79078000
   155  C          0.51804000       0.55575000       0.14314000
   156  C          0.48196000       0.44425000       0.85686000
   157  H          0.49840000       0.63130000       0.14120000
   158  H          0.50160000       0.36870000       0.85880000
   159  H          0.53150000       0.52720000       0.08590000
   160  H          0.46850000       0.47280000       0.91410000
   161  H          0.59780000       0.57630000       0.18440000
   162  H          0.40220000       0.42370000       0.81560000
   163  C          0.19364000       0.13543000       0.23193000
   164  C          0.80636000       0.86457000       0.76807000
   165  H          0.10750000       0.12640000       0.24640000
   166  H          0.89250000       0.87360000       0.75360000
   167  H          0.24580000       0.12280000       0.28140000
   168  H          0.75420000       0.87720000       0.71860000
   169  H          0.18190000       0.07180000       0.18260000
   170  H          0.81810000       0.92820000       0.81740000
   171  N          0.34713000       0.74723000       0.26452000
   172  N          0.65287000       0.25277000       0.73548000
   173  H          0.42940000       0.79440000       0.25420000
   174  H          0.57060000       0.20560000       0.74580000
   175  H          0.29140000       0.77640000       0.23430000
   176  H          0.70860000       0.22360000       0.76570000
   177  H          0.32940000       0.66240000       0.24320000
   178  H          0.67060000       0.33760000       0.75680000
   179  H          0.34840000       0.75740000       0.32630000
   180  H          0.65160000       0.24260000       0.67370000
