data_CUKVEK
_symmetry_space_group_name_H-M    'P1'
_symmetry_Int_Tables_number       1
loop_
_symmetry_equiv_pos_site_id
_symmetry_equiv_pos_as_xyz
1 x,y,z
_cell_length_a                   13.86503
_cell_length_b                   6.70702
_cell_length_c                   10.56603
_cell_angle_alpha                90.0
_cell_angle_beta                 110.6122
_cell_angle_gamma                90.0
loop_
_atom_site_label
_atom_site_type_symbol
_atom_site_fract_x
_atom_site_fract_y
_atom_site_fract_z
     1  O          0.76411800       0.13757150       0.54660100
     2  O          0.23588200       0.63757150       0.95339900
     3  O          0.23588200       0.86242850       0.45339900
     4  O          0.76411800       0.36242850       0.04660100
     5  H          0.80000000       0.23820000       0.56150000
     6  H          0.20000000       0.73820000       0.93850000
     7  H          0.20000000       0.76180000       0.43850000
     8  H          0.80000000       0.26180000       0.06150000
     9  O          0.90763700       0.37462150       0.52919900
    10  O          0.09236300       0.87462150       0.97080100
    11  O          0.09236300       0.62537850       0.47080100
    12  O          0.90763700       0.12537850       0.02919900
    13  O         -0.01152200       0.29777160       0.38602100
    14  O          0.01152200       0.79777160       0.11397900
    15  O          0.01152200       0.70222840       0.61397900
    16  O         -0.01152200       0.20222840       0.88602100
    17  H          0.01870000       0.40200000       0.41640000
    18  H          0.98130000       0.90200000       0.08360000
    19  H          0.98130000       0.59800000       0.58360000
    20  H          0.01870000       0.09800000       0.91640000
    21  N          0.69886100       0.54638000       0.28104140
    22  N          0.30113900       0.04638000       0.21895860
    23  N          0.30113900       0.45362000       0.71895860
    24  N          0.69886100       0.95362000       0.78104140
    25  C          0.86305100       0.07682000       0.40189130
    26  C          0.13694900       0.57682000       0.09810870
    27  C          0.13694900       0.92318000       0.59810870
    28  C          0.86305100       0.42318000       0.90189130
    29  C          0.78614100       0.02172000       0.45452130
    30  C          0.21385900       0.52172000       0.04547870
    31  C          0.21385900       0.97828000       0.54547870
    32  C          0.78614100       0.47828000       0.95452130
    33  C          0.73205100       0.84608000       0.41469140
    34  C          0.26794900       0.34608000       0.08530860
    35  C          0.26794900       0.15392000       0.58530860
    36  C          0.73205100       0.65392000       0.91469140
    37  H          0.68130000       0.81200000       0.44960000
    38  H          0.31870000       0.31200000       0.05040000
    39  H          0.31870000       0.18800000       0.55040000
    40  H          0.68130000       0.68800000       0.94960000
    41  C          0.75274100       0.71848000       0.32215130
    42  C          0.24725900       0.21848000       0.17784870
    43  C          0.24725900       0.28152000       0.67784870
    44  C          0.75274100       0.78152000       0.82215130
    45  C          0.83048110       0.77148000       0.27132140
    46  C          0.16951890       0.27148000       0.22867860
    47  C          0.16951890       0.22852000       0.72867860
    48  C          0.83048110       0.72852000       0.77132140
    49  H          0.84600000       0.68760000       0.21110000
    50  H          0.15400000       0.18760000       0.28890000
    51  H          0.15400000       0.31240000       0.78890000
    52  H          0.84600000       0.81240000       0.71110000
    53  C          0.88307110       0.94648000       0.31078140
    54  C          0.11692890       0.44648000       0.18921860
    55  C          0.11692890       0.05352000       0.68921860
    56  C          0.88307110       0.55352000       0.81078140
    57  H          0.93390000      -0.02010000       0.27590000
    58  H          0.06610000       0.47990000       0.22410000
    59  H          0.06610000       0.02010000       0.72410000
    60  H          0.93390000       0.52010000       0.77590000
    61  C          0.92052100       0.26002000       0.44376130
    62  C          0.07947900       0.76002000       0.05623870
    63  C          0.07947900       0.73998000       0.55623870
    64  C          0.92052100       0.23998000       0.94376130
    65  H          0.71381300       0.46780000       0.22161700
    66  H          0.28618700       0.96780000       0.27838300
    67  H          0.28618700       0.53220000       0.77838300
    68  H          0.71381300       0.03220000       0.72161700
    69  H          0.65201300       0.51480000       0.31891500
    70  H          0.34798700       0.01480000       0.18108500
    71  H          0.34798700       0.48520000       0.68108500
    72  H          0.65201300      -0.01480000       0.81891500
    73  O          0.47151800       0.53544830       0.61382110
    74  O          0.52848200       0.03544830       0.88617890
    75  O          0.52848200       0.46455170       0.38617890
    76  O          0.47151800       0.96455170       0.11382110
    77  C          0.48103120       0.69468000       0.52922160
    78  C          0.51896880       0.19468000       0.97077840
    79  C          0.51896880       0.30532000       0.47077840
    80  C          0.48103120       0.80532000       0.02922160
    81  H          0.55010000       0.74950000       0.56530000
    82  H          0.44990000       0.24950000       0.93470000
    83  H          0.44990000       0.25050000       0.43470000
    84  H          0.55010000       0.75050000       0.06530000
    85  H          0.43280000       0.79990000       0.52850000
    86  H          0.56720000       0.29990000       0.97150000
    87  H          0.56720000       0.20010000       0.47150000
    88  H          0.43280000       0.70010000       0.02850000
    89  C          0.45981130       0.62277000       0.38753160
    90  C          0.54018870       0.12277000       0.11246840
    91  C          0.54018870       0.37723000       0.61246840
    92  C          0.45981130       0.87723000       0.88753160
    93  H          0.38920000       0.57610000       0.34930000
    94  H          0.61080000       0.07610000       0.15070000
    95  H          0.61080000       0.42390000       0.65070000
    96  H          0.38920000       0.92390000       0.84930000
    97  H          0.46820000       0.73220000       0.33230000
    98  H          0.53180000       0.23220000       0.16770000
    99  H          0.53180000       0.26780000       0.66770000
   100  H          0.46820000       0.76780000       0.83230000
