data_CUMPAC
_symmetry_space_group_name_H-M    'P1'
_symmetry_Int_Tables_number       1
loop_
_symmetry_equiv_pos_site_id
_symmetry_equiv_pos_as_xyz
1 x,y,z
_cell_length_a                   5.49196
_cell_length_b                   12.595813
_cell_length_c                   17.207918
_cell_angle_alpha                71.11101
_cell_angle_beta                 86.29701
_cell_angle_gamma                85.83001
loop_
_atom_site_label
_atom_site_type_symbol
_atom_site_fract_x
_atom_site_fract_y
_atom_site_fract_z
     1  C          0.09463000       0.72205120       0.28589900
     2  C          0.90537000       0.27794880       0.71410100
     3  C          0.89043000       0.80923110       0.27275800
     4  C          0.10957000       0.19076890       0.72724200
     5  C          0.73563000       0.81966120       0.20997900
     6  C          0.26437000       0.18033880       0.79002100
     7  H          0.76160000       0.77270000       0.17640000
     8  H          0.23840000       0.22730000       0.82360000
     9  C          0.54173000       0.89969120       0.19682900
    10  C          0.45827000       0.10030880       0.80317100
    11  C          0.50393000       0.96744120       0.24683900
    12  C          0.49607000       0.03255880       0.75316100
    13  H          0.37000000       0.02150000       0.23830000
    14  H          0.63000000       0.97850000       0.76170000
    15  C          0.66143000       0.95594120       0.30898900
    16  C          0.33857000       0.04405880       0.69101100
    17  C          0.85883000       0.87705120       0.32248900
    18  C          0.14117000       0.12294880       0.67751100
    19  H          0.96860000       0.86990000       0.36460000
    20  H          0.03140000       0.13010000       0.63540000
    21  C          0.76653000       0.02024150       0.41840110
    22  C          0.23347000       0.97975850       0.58159890
    23  H          0.75990000       0.94590000       0.46020000
    24  H          0.24010000       0.05410000       0.53980000
    25  H          0.71380000       0.07820000       0.44350000
    26  H          0.28620000       0.92180000       0.55650000
    27  H          0.93430000       0.03200000       0.39570000
    28  H          0.06570000       0.96800000       0.60430000
    29  C          0.42163000       0.85109120       0.08232900
    30  C          0.57837000       0.14890880       0.91767100
    31  H          0.41820000       0.77010000       0.11410000
    32  H          0.58180000       0.22990000       0.88590000
    33  H          0.58400000       0.86530000       0.05370000
    34  H          0.41600000       0.13470000       0.94630000
    35  C          0.22523000       0.88320120       0.02072900
    36  C          0.77477000       0.11679880       0.97927100
    37  H          0.22060000       0.96540000      -0.00750000
    38  H          0.77940000       0.03460000       0.00750000
    39  H          0.06450000       0.86400000       0.04950000
    40  H          0.93550000       0.13600000       0.95050000
    41  C          0.27153000       0.82255120       0.95764900
    42  C          0.72847000       0.17744880       0.04235100
    43  H          0.28530000       0.74070000       0.98680000
    44  H          0.71470000       0.25930000       0.01320000
    45  H          0.43010000       0.84430000       0.92810000
    46  H          0.56990000       0.15570000       0.07190000
    47  C          0.07473000       0.84640120       0.89476900
    48  C          0.92527000       0.15359880       0.10523100
    49  H          0.91370000       0.82660000       0.92310000
    50  H          0.08630000       0.17340000       0.07690000
    51  H          0.06530000       0.92730000       0.86240000
    52  H          0.93470000       0.07270000       0.13760000
    53  C          0.13853000       0.77745130       0.83882900
    54  C          0.86147000       0.22254870       0.16117100
    55  H          0.29770000       0.79890000       0.80960000
    56  H          0.70230000       0.20110000       0.19040000
    57  H          0.15350000       0.69680000       0.87170000
    58  H          0.84650000       0.30320000       0.12830000
    59  C          0.36623000       0.49464120       0.69170900
    60  C          0.63377000       0.50535880       0.30829100
    61  C          0.17063000       0.58505120       0.68223900
    62  C          0.82937000       0.41494880       0.31776100
    63  C          0.16283000       0.64666120       0.73599900
    64  C          0.83717000       0.35333880       0.26400100
    65  H          0.28120000       0.63180000       0.77660000
    66  H          0.71880000       0.36820000       0.22340000
    67  C         -0.02143000       0.73077120       0.72969900
    68  C          0.02143000       0.26922880       0.27030100
    69  C          0.80857000       0.75228120       0.66981900
    70  C          0.19143000       0.24771880       0.33018100
    71  H          0.68190000       0.80900000       0.66600000
    72  H          0.31810000       0.19100000       0.33400000
    73  C          0.82237000       0.69120120       0.61514900
    74  C          0.17763000       0.30879880       0.38485100
    75  C          0.00363000       0.60617120       0.62074900
    76  C         -0.00363000       0.39382880       0.37925100
    77  H          0.01310000       0.56390000       0.58380000
    78  H         -0.01310000       0.43610000       0.41620000
    79  C          0.65517000       0.66434150       0.49824100
    80  C          0.34483000       0.33565850       0.50175900
    81  H          0.81430000       0.67290000       0.46830000
    82  H          0.18570000       0.32710000       0.53170000
    83  H          0.52540000       0.69660000       0.45950000
    84  H          0.47460000       0.30340000       0.54050000
    85  H          0.63090000       0.58440000       0.52600000
    86  H          0.36910000       0.41560000       0.47400000
    87  O          0.12592000       0.66660900       0.23639600
    88  O          0.87408000       0.33339100       0.76360400
    89  O          0.22732000       0.70635900       0.34714700
    90  O          0.77268000       0.29364100       0.65285300
    91  H          0.33570000       0.65540000       0.34810000
    92  H          0.66430000       0.34460000       0.65190000
    93  O          0.37887180       0.91689900       0.13646700
    94  O          0.62112820       0.08310100       0.86353300
    95  O          0.60882000       0.02687900       0.35421700
    96  O          0.39118000       0.97312100       0.64578300
    97  O          0.50152000       0.47466100       0.75301700
    98  O          0.49848000       0.52533900       0.24698300
    99  H          0.60560000       0.42240000       0.75290000
   100  H          0.39440000       0.57760000       0.24710000
   101  O          0.39302000       0.44158900       0.64068700
   102  O          0.60698000       0.55841100       0.35931300
   103  O          0.95291810       0.79550900       0.78033700
   104  O          0.04708190       0.20449100       0.21966300
   105  O          0.64778000       0.72137100       0.55778700
   106  O          0.35222000       0.27862900       0.44221300
   107  C          0.00120000       0.46376000       0.93603000
   108  C         -0.00120000       0.53624000       0.06397000
   109  H          0.00100000       0.43770000       0.89000000
   110  H         -0.00100000       0.56230000       0.11000000
   111  C          0.81961100       0.56493000       0.01466000
   112  C          0.18038900       0.43507000       0.98534000
   113  H          0.68790000       0.61220000       0.02510000
   114  H          0.31210000       0.38780000       0.97490000
   115  C          0.81461100       0.53026000       0.95085000
   116  C          0.18538900       0.46974000       0.04915000
   117  H          0.68100000       0.55190000       0.91550000
   118  H          0.31900000       0.44810000       0.08450000
