data_CUPKEE
_symmetry_space_group_name_H-M    'P1'
_symmetry_Int_Tables_number       1
loop_
_symmetry_equiv_pos_site_id
_symmetry_equiv_pos_as_xyz
1 x,y,z
_cell_length_a                   12.28118
_cell_length_b                   9.73817
_cell_length_c                   11.49598
_cell_angle_alpha                90.0
_cell_angle_beta                 93.78001
_cell_angle_gamma                90.0
loop_
_atom_site_label
_atom_site_type_symbol
_atom_site_fract_x
_atom_site_fract_y
_atom_site_fract_z
     1  C          0.16519180       0.96498000       0.98130810
     2  C          0.83480820       0.46498000       0.51869190
     3  C          0.83480820       0.03502000       0.01869190
     4  C          0.16519180       0.53502000       0.48130810
     5  C          0.14027190       0.01222000       0.86928000
     6  C          0.85972810       0.51222000       0.63072000
     7  C          0.85972810      -0.01222000       0.13072000
     8  C          0.14027190       0.48778000       0.36928000
     9  C          0.05820190       0.95358000       0.79805810
    10  C          0.94179810       0.45358000       0.70194190
    11  C          0.94179810       0.04642000       0.20194190
    12  C          0.05820190       0.54642000       0.29805810
    13  C         -0.00334180       0.84698000       0.83503810
    14  C          0.00334180       0.34698000       0.66496190
    15  C          0.00334180       0.15302000       0.16496190
    16  C         -0.00334180       0.65302000       0.33503810
    17  H          0.94070000       0.80640000       0.78530000
    18  H          0.05930000       0.30640000       0.71470000
    19  H          0.05930000       0.19360000       0.21470000
    20  H          0.94070000       0.69360000       0.28530000
    21  C          0.01921180       0.80078000       0.94758000
    22  C          0.98078820       0.30078000       0.55242000
    23  C          0.98078820       0.19922000       0.05242000
    24  C          0.01921180       0.69922000       0.44758000
    25  C          0.10175180       0.85718000       0.01860180
    26  C          0.89824820       0.35718000       0.48139820
    27  C          0.89824820       0.14282000       0.98139820
    28  C          0.10175180       0.64282000       0.51860180
    29  F          0.19672110       0.11885140       0.82772880
    30  F          0.80327890       0.61885140       0.67227120
    31  F          0.80327890       0.88114860       0.17227120
    32  F          0.19672110       0.38114860       0.32772880
    33  F          0.03835130       0.00498160       0.68978880
    34  F          0.96164870       0.50498160       0.81021120
    35  F          0.96164870      -0.00498160       0.31021120
    36  F          0.03835130       0.49501840       0.18978880
    37  F          0.95824880       0.70048850      -0.00933120
    38  F          0.04175120       0.20048850       0.50933120
    39  F          0.04175120       0.29951150       0.00933120
    40  F          0.95824880       0.79951150       0.49066880
    41  F          0.11922120       0.80735850       0.12742110
    42  F          0.88077880       0.30735850       0.37257890
    43  F          0.88077880       0.19264150       0.87257890
    44  F          0.11922120       0.69264150       0.62742110
    45  I          0.29317512       0.04422415       0.09275612
    46  I          0.70682488       0.54422415       0.40724388
    47  I          0.70682488       0.95577585       0.90724388
    48  I          0.29317512       0.45577585       0.59275612
    49  C          0.44364190       0.18472000       0.34772000
    50  C          0.55635810       0.68472000       0.15228000
    51  C          0.55635810       0.81528000       0.65228000
    52  C          0.44364190       0.31528000       0.84772000
    53  H          0.37920000       0.23830000       0.34980000
    54  H          0.62080000       0.73830000       0.15020000
    55  H          0.62080000       0.76170000       0.65020000
    56  H          0.37920000       0.26170000       0.84980000
    57  C          0.51716180       0.18992000       0.44322000
    58  C          0.48283820       0.68992000       0.05678000
    59  C          0.48283820       0.81008000       0.55678000
    60  C          0.51716180       0.31008000       0.94322000
    61  H          0.50320000       0.24640000       0.50790000
    62  H          0.49680000       0.74640000      -0.00790000
    63  H          0.49680000       0.75360000       0.49210000
    64  H          0.50320000       0.25360000       0.00790000
    65  C          0.61342180       0.11062000       0.44462000
    66  C          0.38657820       0.61062000       0.05538000
    67  C          0.38657820       0.88938000       0.55538000
    68  C          0.61342180       0.38938000       0.94462000
    69  C          0.62592000       0.02902000       0.34462000
    70  C          0.37408000       0.52902000       0.15538000
    71  C          0.37408000       0.97098000       0.65538000
    72  C          0.62592000       0.47098000       0.84462000
    73  H          0.68800000       0.97160000       0.34030000
    74  H          0.31200000       0.47160000       0.15970000
    75  H          0.31200000       0.02840000       0.65970000
    76  H          0.68800000       0.52840000       0.84030000
    77  C          0.54732000       0.03342000       0.25372000
    78  C          0.45268000       0.53342000       0.24628000
    79  C          0.45268000       0.96658000       0.74628000
    80  C          0.54732000       0.46658000       0.75372000
    81  H          0.55830000       0.97840000       0.18730000
    82  H          0.44170000       0.47840000       0.31270000
    83  H          0.44170000       0.02160000       0.81270000
    84  H          0.55830000       0.52160000       0.68730000
    85  C          0.67442000       0.20093000       0.63452000
    86  C          0.32558000       0.70093000       0.86548000
    87  C          0.32558000       0.79907000       0.36548000
    88  C          0.67442000       0.29907000       0.13452000
    89  H          0.66090000       0.29520000       0.60730000
    90  H          0.33910000       0.79520000       0.89270000
    91  H          0.33910000       0.70480000       0.39270000
    92  H          0.66090000       0.20480000       0.10730000
    93  H          0.74030000       0.19870000       0.68730000
    94  H          0.25970000       0.69870000       0.81270000
    95  H          0.25970000       0.80130000       0.31270000
    96  H          0.74030000       0.30130000       0.18730000
    97  H          0.61190000       0.16880000       0.67590000
    98  H          0.38810000       0.66880000       0.82410000
    99  H          0.38810000       0.83120000       0.32410000
   100  H          0.61190000       0.33120000       0.17590000
   101  C          0.78132000       0.01913000       0.53943000
   102  C          0.21868000       0.51913000       0.96057000
   103  C          0.21868000       0.98087000       0.46057000
   104  C          0.78132000       0.48087000       0.03943000
   105  H          0.75480000       0.92440000       0.53120000
   106  H          0.24520000       0.42440000       0.96880000
   107  H          0.24520000       0.07560000       0.46880000
   108  H          0.75480000       0.57560000       0.03120000
   109  H          0.82380000       0.02930000       0.61410000
   110  H          0.17620000       0.52930000       0.88590000
   111  H          0.17620000       0.97070000       0.38590000
   112  H          0.82380000       0.47070000       0.11410000
   113  H          0.82750000       0.04050000       0.47550000
   114  H          0.17250000       0.54050000       0.02450000
   115  H          0.17250000       0.95950000       0.52450000
   116  H          0.82750000       0.45950000       0.97550000
   117  N          0.45649170       0.10962000       0.25216190
   118  N          0.54350830       0.60962000       0.24783810
   119  N          0.54350830       0.89038000       0.74783810
   120  N          0.45649170       0.39038000       0.75216190
   121  N          0.68897160       0.11252000       0.53554180
   122  N          0.31102840       0.61252000       0.96445820
   123  N          0.31102840       0.88748000       0.46445820
   124  N          0.68897160       0.38748000       0.03554180
