data_CUPKAA
_symmetry_space_group_name_H-M    'P1'
_symmetry_Int_Tables_number       1
loop_
_symmetry_equiv_pos_site_id
_symmetry_equiv_pos_as_xyz
1 x,y,z
_cell_length_a                   6.36184
_cell_length_b                   28.139616
_cell_length_c                   7.45814
_cell_angle_alpha                90.0
_cell_angle_beta                 91.76401
_cell_angle_gamma                90.0
loop_
_atom_site_label
_atom_site_type_symbol
_atom_site_fract_x
_atom_site_fract_y
_atom_site_fract_z
     1  C          0.51044000       0.26864800       0.00193000
     2  C          0.48956000       0.76864800       0.49807000
     3  C          0.48956000       0.73135200      -0.00193000
     4  C          0.51044000       0.23135200       0.50193000
     5  C          0.46714000       0.22104900       0.97443000
     6  C          0.53286000       0.72104900       0.52557000
     7  C          0.53286000       0.77895100       0.02557000
     8  C          0.46714000       0.27895100       0.47443000
     9  C          0.61254000       0.18642800       0.02153000
    10  C          0.38746000       0.68642800       0.47847000
    11  C          0.38746000       0.81357200       0.97847000
    12  C          0.61254000       0.31357200       0.52153000
    13  C          0.80464000       0.19804900       0.09833000
    14  C          0.19536000       0.69804900       0.40167000
    15  C          0.19536000       0.80195100       0.90167000
    16  C          0.80464000       0.30195100       0.59833000
    17  H          0.90360000       0.17400000       0.13000000
    18  H          0.09640000       0.67400000       0.37000000
    19  H          0.09640000       0.82600000       0.87000000
    20  H          0.90360000       0.32600000       0.63000000
    21  C          0.85174000       0.24567900       0.12883000
    22  C          0.14826000       0.74567900       0.37117000
    23  C          0.14826000       0.75432100       0.87117000
    24  C          0.85174000       0.25432100       0.62883000
    25  H         -0.01700000       0.25470000       0.18280000
    26  H          0.01700000       0.75470000       0.31720000
    27  H          0.01700000       0.74530000       0.81720000
    28  H         -0.01700000       0.24530000       0.68280000
    29  C          0.70524000       0.27958900       0.07983000
    30  C          0.29476000       0.77958900       0.42017000
    31  C          0.29476000       0.72041100       0.92017000
    32  C          0.70524000       0.22041100       0.57983000
    33  F          0.28042000       0.20735600       0.90139190
    34  F          0.71958000       0.70735600       0.59860810
    35  F          0.71958000       0.79264400       0.09860810
    36  F          0.28042000       0.29264400       0.40139190
    37  F          0.56092000       0.14046500      -0.00718000
    38  F          0.43908000       0.64046500       0.50718000
    39  F          0.43908000       0.85953500       0.00718000
    40  F          0.56092000       0.35953500       0.49282000
    41  F          0.75292000       0.32589500       0.10972000
    42  F          0.24708000       0.82589500       0.39028000
    43  F          0.24708000       0.67410500       0.89028000
    44  F          0.75292000       0.17410500       0.60972000
    45  I          0.29643200       0.32219450       0.92422200
    46  I          0.70356800       0.82219450       0.57577800
    47  I          0.70356800       0.67780550       0.07577800
    48  I          0.29643200       0.17780550       0.42422200
    49  C          0.85886000       0.41885900       0.83143000
    50  C          0.14114000       0.91885900       0.66857000
    51  C          0.14114000       0.58114100       0.16857000
    52  C          0.85886000       0.08114100       0.33143000
    53  H          0.75720000       0.39650000       0.86890000
    54  H          0.24280000       0.89650000       0.63110000
    55  H          0.24280000       0.60350000       0.13110000
    56  H          0.75720000       0.10350000       0.36890000
    57  C          0.79616000       0.46526900       0.81113000
    58  C          0.20384000       0.96526900       0.68887000
    59  C          0.20384000       0.53473100       0.18887000
    60  C          0.79616000       0.03473100       0.31113000
    61  H          0.65470000       0.47400000       0.83140000
    62  H          0.34530000       0.97400000       0.66860000
    63  H          0.34530000       0.52600000       0.16860000
    64  H          0.65470000       0.02600000       0.33140000
    65  C          0.94366000       0.50008800       0.75993000
    66  C          0.05634000       0.00008800       0.74007000
    67  C          0.05634000       0.49991200       0.24007000
    68  C          0.94366000      -0.00008800       0.25993000
    69  C          0.14664000       0.48286900       0.72603000
    70  C          0.85336000       0.98286900       0.77397000
    71  C          0.85336000       0.51713100       0.27397000
    72  C          0.14664000       0.01713100       0.22603000
    73  H          0.25250000       0.50400000       0.68770000
    74  H          0.74750000       0.00400000       0.81230000
    75  H          0.74750000       0.49600000       0.31230000
    76  H          0.25250000      -0.00400000       0.18770000
    77  C          0.19084000       0.43552100       0.74844000
    78  C          0.80916000       0.93552100       0.75156000
    79  C          0.80916000       0.56447900       0.25156000
    80  C          0.19084000       0.06447900       0.24844000
    81  H          0.32930000       0.42520000       0.72390000
    82  H          0.67070000       0.92520000       0.77610000
    83  H          0.67070000       0.57480000       0.27610000
    84  H          0.32930000       0.07480000       0.22390000
    85  C          0.67535000       0.56187100       0.75794000
    86  C          0.32465000       0.06187100       0.74206000
    87  C          0.32465000       0.43812900       0.24206000
    88  C          0.67535000       0.93812900       0.25794000
    89  H          0.59040000       0.54820000       0.65890000
    90  H          0.40960000       0.04820000       0.84110000
    91  H          0.40960000       0.45180000       0.34110000
    92  H          0.59040000       0.95180000       0.15890000
    93  H          0.66820000       0.59660000       0.75200000
    94  H          0.33180000       0.09660000       0.74800000
    95  H          0.33180000       0.40340000       0.24800000
    96  H          0.66820000       0.90340000       0.25200000
    97  H          0.62120000       0.55100000       0.87240000
    98  H          0.37880000       0.05100000       0.62760000
    99  H          0.37880000       0.44900000       0.12760000
   100  H          0.62120000       0.94900000       0.37240000
   101  C          0.04755000       0.58114900       0.68784000
   102  C          0.95245000       0.08114900       0.81216000
   103  C          0.95245000       0.41885100       0.31216000
   104  C          0.04755000       0.91885100       0.18784000
   105  H          0.16980000       0.58010000       0.77090000
   106  H          0.83020000       0.08010000       0.72910000
   107  H          0.83020000       0.41990000       0.22910000
   108  H          0.16980000       0.91990000       0.27090000
   109  H         -0.01400000       0.61310000       0.68860000
   110  H          0.01400000       0.11310000       0.81140000
   111  H          0.01400000       0.38690000       0.31140000
   112  H         -0.01400000       0.88690000       0.18860000
   113  H          0.09150000       0.57340000       0.56650000
   114  H          0.90850000       0.07340000       0.93350000
   115  H          0.90850000       0.42660000       0.43350000
   116  H          0.09150000       0.92660000       0.06650000
   117  N          0.05383000       0.40261800       0.80203000
   118  N          0.94617000       0.90261800       0.69797000
   119  N          0.94617000       0.59738200       0.19797000
   120  N          0.05383000       0.09738200       0.30203000
   121  N          0.89206000       0.54675800       0.74363000
   122  N          0.10794000       0.04675800       0.75637000
   123  N          0.10794000       0.45324200       0.25637000
   124  N          0.89206000       0.95324200       0.24363000
