data_CUVSIY
_symmetry_space_group_name_H-M    'P1'
_symmetry_Int_Tables_number       1
loop_
_symmetry_equiv_pos_site_id
_symmetry_equiv_pos_as_xyz
1 x,y,z
_cell_length_a                   19.58346
_cell_length_b                   5.98182
_cell_length_c                   20.02296
_cell_angle_alpha                90.0
_cell_angle_beta                 114.30601
_cell_angle_gamma                90.0
loop_
_atom_site_label
_atom_site_type_symbol
_atom_site_fract_x
_atom_site_fract_y
_atom_site_fract_z
     1  S          0.91440300       0.45804800       0.67974300
     2  S          0.08559700       0.95804800       0.82025700
     3  S          0.08559700       0.54195200       0.32025700
     4  S          0.91440300       0.04195200       0.17974300
     5  O          0.86755900       0.63542000       0.62625800
     6  O          0.13244100       0.13542000       0.87374200
     7  O          0.13244100       0.36458000       0.37374200
     8  O          0.86755900       0.86458000       0.12625800
     9  C          0.85464130       0.22364000       0.66764140
    10  C          0.14535870       0.72364000       0.83235860
    11  C          0.14535870       0.77636000       0.33235860
    12  C          0.85464130       0.27636000       0.16764140
    13  H          0.81611700       0.26062400       0.68521200
    14  H          0.18388300       0.76062400       0.81478800
    15  H          0.18388300       0.73937600       0.31478800
    16  H          0.81611700       0.23937600       0.18521200
    17  H          0.88422300       0.09630900       0.69551200
    18  H          0.11577700       0.59630900       0.80448800
    19  H          0.11577700       0.90369100       0.30448800
    20  H          0.88422300       0.40369100       0.19551200
    21  H          0.83063100       0.18453800       0.61553000
    22  H          0.16936900       0.68453800       0.88447000
    23  H          0.16936900       0.81546200       0.38447000
    24  H          0.83063100       0.31546200       0.11553000
    25  C          0.97334120       0.34044000       0.64111130
    26  C          0.02665880       0.84044000       0.85888870
    27  C          0.02665880       0.65956000       0.35888870
    28  C          0.97334120       0.15956000       0.14111130
    29  H          0.94262500       0.28709400       0.59143300
    30  H          0.05737500       0.78709400       0.90856700
    31  H          0.05737500       0.71290600       0.40856700
    32  H          0.94262500       0.21290600       0.09143300
    33  H          0.00146800       0.21495300       0.67144700
    34  H         -0.00146800       0.71495300       0.82855300
    35  H         -0.00146800       0.78504700       0.32855300
    36  H          0.00146800       0.28504700       0.17144700
    37  H          0.00841000       0.45442200       0.63914700
    38  H         -0.00841000       0.95442200       0.86085300
    39  H         -0.00841000       0.54557800       0.36085300
    40  H          0.00841000       0.04557800       0.13914700
    41  S          0.68277300       0.80552100       0.52112300
    42  S          0.31722700       0.30552100       0.97887700
    43  S          0.31722700       0.19447900       0.47887700
    44  S          0.68277300       0.69447900       0.02112300
    45  O          0.66850900       0.70213000       0.44753900
    46  O          0.33149100       0.20213000       0.05246100
    47  O          0.33149100       0.29787000       0.55246100
    48  O          0.66850900       0.79787000       0.94753900
    49  C          0.59752140       0.93794000       0.50877140
    50  C          0.40247860       0.43794000       0.99122860
    51  C          0.40247860       0.06206000       0.49122860
    52  C          0.59752140       0.56206000       0.00877140
    53  H          0.58966400       0.06841200       0.47685600
    54  H          0.41033600       0.56841200       0.02314400
    55  H          0.41033600       0.93158800       0.52314400
    56  H          0.58966400       0.43158800       0.97685600
    57  H          0.59975600      -0.01406500       0.55641700
    58  H          0.40024400       0.48593500       0.94358300
    59  H          0.40024400       0.01406500       0.44358300
    60  H          0.59975600       0.51406500       0.05641700
    61  H          0.55596000       0.83264200       0.48618500
    62  H          0.44404000       0.33264200       0.01381500
    63  H          0.44404000       0.16735800       0.51381500
    64  H          0.55596000       0.66735800       0.98618500
    65  C          0.67762140       0.57565000       0.57500140
    66  C          0.32237860       0.07565000       0.92499860
    67  C          0.32237860       0.42435000       0.42499860
    68  C          0.67762140       0.92435000       0.07500140
    69  H          0.62890700       0.50175500       0.55060300
    70  H          0.37109300       0.00175500       0.94939700
    71  H          0.37109300       0.49824500       0.44939700
    72  H          0.62890700      -0.00175500       0.05060300
    73  H          0.68343700       0.62924700       0.62329800
    74  H          0.31656300       0.12924700       0.87670200
    75  H          0.31656300       0.37075300       0.37670200
    76  H          0.68343700       0.87075300       0.12329800
    77  H          0.71768400       0.46901600       0.58082800
    78  H          0.28231600       0.96901600       0.91917200
    79  H          0.28231600       0.53098400       0.41917200
    80  H          0.71768400       0.03098400       0.08082800
    81  O          0.95036800       0.31752000       0.45326800
    82  O          0.04963200       0.81752000       0.04673200
    83  O          0.04963200       0.68248000       0.54673200
    84  O          0.95036800       0.18248000       0.95326800
    85  O          0.92933800       0.14612000       0.35053800
    86  O          0.07066200       0.64612000       0.14946200
    87  O          0.07066200       0.85388000       0.64946200
    88  O          0.92933800       0.35388000       0.85053800
    89  O          0.73319800       0.16842000       0.42940800
    90  O          0.26680200       0.66842000       0.07059200
    91  O          0.26680200       0.83158000       0.57059200
    92  O          0.73319800       0.33158000       0.92940800
    93  O          0.51127800      -0.01583000       0.08573800
    94  O          0.48872200       0.48417000       0.41426200
    95  O          0.48872200       0.01583000       0.91426200
    96  O          0.51127800       0.51583000       0.58573800
    97  O          0.44444800       0.80347000       0.13188900
    98  O          0.55555200       0.30347000       0.36811100
    99  O          0.55555200       0.19653000       0.86811100
   100  O          0.44444800       0.69653000       0.63188900
   101  O          0.55289900       0.42743000       0.15309900
   102  O          0.44710100       0.92743000       0.34690100
   103  O          0.44710100       0.57257000       0.84690100
   104  O          0.55289900       0.07257000       0.65309900
   105  O          0.83756900       0.62193000       0.28415900
   106  O          0.16243100       0.12193000       0.21584100
   107  O          0.16243100       0.37807000       0.71584100
   108  O          0.83756900       0.87807000       0.78415900
   109  O          0.77917900       0.93893000       0.26997900
   110  O          0.22082100       0.43893000       0.23002100
   111  O          0.22082100       0.06107000       0.73002100
   112  O          0.77917900       0.56107000       0.76997900
   113  N          0.78665800       0.33403000       0.46797900
   114  N          0.21334200       0.83403000       0.03202100
   115  N          0.21334200       0.66597000       0.53202100
   116  N          0.78665800       0.16597000       0.96797900
   117  O          0.67203800       0.36613000       0.18797900
   118  O          0.32796200       0.86613000       0.31202100
   119  O          0.32796200       0.63387000       0.81202100
   120  O          0.67203800       0.13387000       0.68797900
   121  N          0.86636900       0.76023000       0.50112100
   122  N          0.13363100       0.26023000      -0.00112100
   123  N          0.13363100       0.23977000       0.49887900
   124  N          0.86636900       0.73977000       0.00112100
   125  N          0.92663900       0.16093000       0.41062900
   126  N          0.07336100       0.66093000       0.08937100
   127  N          0.07336100       0.83907000       0.58937100
   128  N          0.92663900       0.33907000       0.91062900
   129  N          0.81872900       0.78823000       0.30732900
   130  N          0.18127100       0.28823000       0.19267100
   131  N          0.18127100       0.21177000       0.69267100
   132  N          0.81872900       0.71177000       0.80732900
   133  N          0.62098900       0.91167000       0.32219100
   134  N          0.37901100       0.41167000       0.17780900
   135  N          0.37901100       0.08833000       0.67780900
   136  N          0.62098900       0.58833000       0.82219100
   137  N          0.61076900       0.32433000       0.18788900
   138  N          0.38923100       0.82433000       0.31211100
   139  N          0.38923100       0.67567000       0.81211100
   140  N          0.61076900       0.17567000       0.68788900
   141  N          0.73292900       0.42673000       0.34859900
   142  N          0.26707100       0.92673000       0.15140100
   143  N          0.26707100       0.57327000       0.65140100
   144  N          0.73292900       0.07327000       0.84859900
   145  N          0.90506900       0.94543000       0.50129900
   146  N          0.09493100       0.44543000      -0.00129900
   147  N          0.09493100       0.05457000       0.49870100
   148  N          0.90506900       0.55457000       0.00129900
   149  N          0.56431900       0.82207000       0.26465100
   150  N          0.43568100       0.32207000       0.23534900
   151  N          0.43568100       0.17793000       0.73534900
   152  N          0.56431900       0.67793000       0.76465100
   153  N          0.49923900       0.91247000       0.13743100
   154  N          0.50076100       0.41247000       0.36256900
   155  N          0.50076100       0.08753000       0.86256900
   156  N          0.49923900       0.58753000       0.63743100
   157  C          0.89220100       0.97633000       0.43169110
   158  C          0.10779900       0.47633000       0.06830890
   159  C          0.10779900       0.02367000       0.56830890
   160  C          0.89220100       0.52367000       0.93169110
   161  C          0.78237110       0.47723000       0.41666110
   162  C          0.21762890      -0.02277000       0.08333890
   163  C          0.21762890       0.52277000       0.58333890
   164  C          0.78237110       0.02277000       0.91666110
   165  C          0.64778110       0.10133000       0.30515110
   166  C          0.35221890       0.60133000       0.19484890
   167  C          0.35221890       0.89867000       0.69484890
   168  C          0.64778110       0.39867000       0.80515110
   169  C          0.55478100       0.96107000       0.20996110
   170  C          0.44521900       0.46107000       0.29003890
   171  C          0.44521900       0.03893000       0.79003890
   172  C          0.55478100       0.53893000       0.70996110
   173  C          0.70506110       0.23593000       0.36036110
   174  C          0.29493890       0.73593000       0.13963890
   175  C          0.29493890       0.76407000       0.63963890
   176  C          0.70506110       0.26407000       0.86036110
   177  C          0.82976100       0.67403000       0.43331110
   178  C          0.17023900       0.17403000       0.06668890
   179  C          0.17023900       0.32597000       0.56668890
   180  C          0.82976100       0.82597000       0.93331110
   181  C          0.84580100       0.81123000       0.38621110
   182  C          0.15419900       0.31123000       0.11378890
   183  C          0.15419900       0.18877000       0.61378890
   184  C          0.84580100       0.68877000       0.88621110
   185  C          0.60607100       0.13693000       0.23164110
   186  C          0.39392900       0.63693000       0.26835890
   187  C          0.39392900       0.86307000       0.76835890
   188  C          0.60607100       0.36307000       0.73164110
   189  H          0.63841400       0.84260000       0.36991500
   190  H          0.36158600       0.34260000       0.13008500
   191  H          0.36158600       0.15740000       0.63008500
   192  H          0.63841400       0.65740000       0.86991500
   193  H          0.86771500       0.70550000       0.54661600
   194  H          0.13228500       0.20550000       0.95338400
   195  H          0.13228500       0.29450000       0.45338400
   196  H          0.86771500       0.79450000       0.04661600
