data_CUWPAO
_symmetry_space_group_name_H-M    'P1'
_symmetry_Int_Tables_number       1
loop_
_symmetry_equiv_pos_site_id
_symmetry_equiv_pos_as_xyz
1 x,y,z
_cell_length_a                   4.79215
_cell_length_b                   11.124512
_cell_length_c                   11.298813
_cell_angle_alpha                65.8838
_cell_angle_beta                 86.4459
_cell_angle_gamma                78.3518
loop_
_atom_site_label
_atom_site_type_symbol
_atom_site_fract_x
_atom_site_fract_y
_atom_site_fract_z
     1  Cl         0.52859800       0.37846500       0.87525400
     2  Cl         0.47140200       0.62153500       0.12474600
     3  O          0.07373000       0.61396140       0.73596120
     4  O          0.92627000       0.38603860       0.26403880
     5  O          0.37393000       0.29037130       0.15084130
     6  O          0.62607000       0.70962870       0.84915870
     7  C          0.04783000       0.55541160       0.86264150
     8  C          0.95217000       0.44458840       0.13735850
     9  C          0.23853000       0.44921150       0.93915160
    10  C          0.76147000       0.55078850       0.06084840
    11  C          0.20693000       0.38654160       0.07880160
    12  C          0.79307000       0.61345840       0.92119840
    13  H          0.92860000       0.66520000       0.70420000
    14  H          0.07140000       0.33480000       0.29580000
    15  O          0.32042000       0.41633100       0.43342120
    16  O          0.67958000       0.58366900       0.56657880
    17  O          0.32042000       0.17092110       0.43399110
    18  O          0.67958000       0.82907890       0.56600890
    19  N          0.69173000       0.32450120       0.57831130
    20  N          0.30827000       0.67549880       0.42168870
    21  N          0.68413000       0.07859130       0.58278140
    22  N          0.31587000       0.92140870       0.41721860
    23  C          0.49493000       0.31902140       0.50219150
    24  C          0.50507000       0.68097860       0.49780850
    25  C          0.49323000       0.18215140       0.50370150
    26  C          0.50677000       0.81784860       0.49629850
    27  C          0.87143000       0.08705150       0.66750150
    28  C          0.12857000       0.91294850       0.33249850
    29  C          0.05084000       0.97396840       0.75312180
    30  C          0.94916000       0.02603160       0.24687820
    31  H          0.05073500       0.88991200       0.75427400
    32  H          0.94926500       0.11008800       0.24572600
    33  C          0.22904000       0.98724820       0.83635190
    34  C          0.77096000       0.01275180       0.16364810
    35  H          0.34588800       0.91141600       0.89523400
    36  H          0.65411200       0.08858400       0.10476600
    37  C          0.23564000       0.11281180       0.83317180
    38  C          0.76436000       0.88718820       0.16682820
    39  H          0.35811600       0.12070900       0.88915100
    40  H          0.64188400       0.87929100       0.11084900
    41  C          0.06103000       0.22567160       0.74727170
    42  C          0.93897000       0.77432840       0.25272830
    43  H          0.06697300       0.30976100       0.74467400
    44  H          0.93302700       0.69023900       0.25532600
    45  C          0.87623000       0.21357140       0.66456150
    46  C          0.12377000       0.78642860       0.33543850
    47  H          0.70140000       0.40720000       0.57371800
    48  H          0.29860000       0.59280000       0.42628200
    49  H          0.67940000      -0.00220000       0.58241800
    50  H          0.32060000       0.00220000       0.41758200
