data_CUWPOC
_symmetry_space_group_name_H-M    'P1'
_symmetry_Int_Tables_number       1
loop_
_symmetry_equiv_pos_site_id
_symmetry_equiv_pos_as_xyz
1 x,y,z
_cell_length_a                   8.45215
_cell_length_b                   5.13032
_cell_length_c                   23.148214
_cell_angle_alpha                90.0
_cell_angle_beta                 99.3165
_cell_angle_gamma                90.0
loop_
_atom_site_label
_atom_site_type_symbol
_atom_site_fract_x
_atom_site_fract_y
_atom_site_fract_z
     1  Cl         0.54056700       0.18828100       0.63114200
     2  Cl         0.95943300       0.68828100       0.86885800
     3  Cl         0.45943300       0.81171900       0.36885800
     4  Cl         0.04056700       0.31171900       0.13114200
     5  O          0.34695180       0.75127000       0.57467600
     6  O          0.15304820       0.25127000       0.92532400
     7  O          0.65304820       0.24873000       0.42532400
     8  O          0.84695180       0.74873000       0.07467600
     9  O          0.69292190       0.41923000       0.53684700
    10  O          0.80707810       0.91923000       0.96315300
    11  O          0.30707810       0.58077000       0.46315300
    12  O          0.19292190       0.08077000       0.03684700
    13  H          0.73430000       0.48450000       0.51081200
    14  H          0.76570000      -0.01550000       0.98918800
    15  H          0.26570000       0.51550000       0.48918800
    16  H          0.23430000       0.01550000       0.01081200
    17  C          0.41912000       0.86947000       0.54157800
    18  C          0.08088000       0.36947000       0.95842200
    19  C          0.58088000       0.13053000       0.45842200
    20  C          0.91912000       0.63053000       0.04157800
    21  C          0.52342000       0.09013000       0.55979800
    22  C          0.97658000       0.59013000       0.94020200
    23  C          0.47658000       0.90987000       0.44020200
    24  C          0.02342000       0.40987000       0.05979800
    25  C          0.60032000       0.21523000       0.52124800
    26  C          0.89968000       0.71523000       0.97875200
    27  C          0.39968000       0.78477000       0.47875200
    28  C          0.10032000       0.28477000       0.02124800
    29  O          0.14041190       0.27263000       0.51833700
    30  O          0.35958810       0.77263000       0.98166300
    31  O          0.85958810       0.72737000       0.48166300
    32  O          0.64041190       0.22737000       0.01833700
    33  N          0.00442000       0.02513000       0.57829800
    34  N          0.49558000       0.52513000       0.92170200
    35  N         -0.00442000      -0.02513000       0.42170200
    36  N          0.50442000       0.47487000       0.07829800
    37  H          0.95870000       0.91860000       0.55051000
    38  H          0.54130000       0.41860000       0.94949000
    39  H          0.04130000       0.08140000       0.44949000
    40  H          0.45870000       0.58140000       0.05051000
    41  N          0.14112000       0.35633000       0.61747900
    42  N          0.35888000       0.85633000       0.88252100
    43  N          0.85888000       0.64367000       0.38252100
    44  N          0.64112000       0.14367000       0.11747900
    45  H          0.20130000       0.47240000       0.62131000
    46  H          0.29870000       0.97240000       0.87869000
    47  H          0.79870000       0.52760000       0.37869000
    48  H          0.70130000       0.02760000       0.12131000
    49  C          0.09902000       0.22414000       0.56670100
    50  C          0.40098000       0.72414000       0.93329900
    51  C          0.90098000       0.77586000       0.43329900
    52  C          0.59902000       0.27586000       0.06670100
    53  C          0.07602000       0.23793000       0.66247100
    54  C          0.42398000       0.73793000       0.83752900
    55  C          0.92398000       0.76207000       0.33752900
    56  C          0.57602000       0.26207000       0.16247100
    57  C          0.08343000       0.29504000       0.72094110
    58  C          0.41657000       0.79504000       0.77905890
    59  C          0.91657000       0.70496000       0.27905890
    60  C          0.58343000       0.20496000       0.22094110
    61  C         -0.00123000       0.13564000       0.75330110
    62  C          0.50123000       0.63564000       0.74669890
    63  C          0.00123000       0.86436000       0.24669890
    64  C          0.49877000       0.36436000       0.25330110
    65  C          0.90967000       0.92766000       0.72783110
    66  C          0.59033000       0.42766000       0.77216890
    67  C          0.09033000       0.07234000       0.27216890
    68  C          0.40967000       0.57234000       0.22783110
    69  C          0.90267000       0.86806000       0.66898110
    70  C          0.59733000       0.36806000       0.83101890
    71  C          0.09733000       0.13194000       0.33101890
    72  C          0.40267000       0.63194000       0.16898110
    73  C         -0.01282000       0.02763000       0.63661900
    74  C          0.51282000       0.52763000       0.86338100
    75  C          0.01282000       0.97237000       0.36338100
    76  C          0.48718000       0.47237000       0.13661900
    77  H          0.14530000       0.42540000       0.74031000
    78  H          0.35470000       0.92540000       0.75969000
    79  H          0.85470000       0.57460000       0.25969000
    80  H          0.64530000       0.07460000       0.24031000
    81  H         -0.00430000       0.16950000       0.79031200
    82  H          0.50430000       0.66950000       0.70968800
    83  H          0.00430000       0.83050000       0.20968800
    84  H          0.49570000       0.33050000       0.29031200
    85  H          0.84970000       0.81850000       0.75051200
    86  H          0.65030000       0.31850000       0.74948800
    87  H          0.15030000       0.18150000       0.24948800
    88  H          0.34970000       0.68150000       0.25051200
    89  H          0.83670000       0.73160000       0.64911000
    90  H          0.66330000       0.23160000       0.85089000
    91  H          0.16330000       0.26840000       0.35089000
    92  H          0.33670000       0.76840000       0.14911000
