data_CUWPUI
_symmetry_space_group_name_H-M    'P1'
_symmetry_Int_Tables_number       1
loop_
_symmetry_equiv_pos_site_id
_symmetry_equiv_pos_as_xyz
1 x,y,z
_cell_length_a                   5.29476
_cell_length_b                   8.12407
_cell_length_c                   20.8803
_cell_angle_alpha                90.0
_cell_angle_beta                 90.1099
_cell_angle_gamma                90.0
loop_
_atom_site_label
_atom_site_type_symbol
_atom_site_fract_x
_atom_site_fract_y
_atom_site_fract_z
     1  O          0.27033000       0.13322000       0.01845800
     2  O          0.22967000       0.63322000       0.48154200
     3  O          0.72967000       0.86678000       0.98154200
     4  O          0.77033000       0.36678000       0.51845800
     5  N         -0.00564000      -0.00353000       0.08634900
     6  N          0.50564000       0.49647000       0.41365100
     7  N          0.00564000       0.00353000       0.91365100
     8  N          0.49436000       0.50353000       0.58634900
     9  H          0.87950000       0.94870000       0.04991300
    10  H          0.62050000       0.44870000       0.45008700
    11  H          0.12050000       0.05130000       0.95008700
    12  H          0.37950000       0.55130000       0.54991300
    13  H          0.44050000       0.21840000       0.13171400
    14  H          0.05950000       0.71840000       0.36828600
    15  H          0.55950000       0.78160000       0.86828600
    16  H          0.94050000       0.28160000       0.63171400
    17  N          0.29904000       0.14212000       0.13027900
    18  N          0.20096000       0.64212000       0.36972100
    19  N          0.70096000       0.85788000       0.86972100
    20  N          0.79904000       0.35788000       0.63027900
    21  C          0.19704000       0.09413000       0.07312110
    22  C          0.30296000       0.59413000       0.42687890
    23  C          0.80296000       0.90587000       0.92687890
    24  C          0.69704000       0.40587000       0.57312110
    25  C          0.15994000       0.07743000       0.18050110
    26  C          0.34006000       0.57743000       0.31949890
    27  C          0.84006000       0.92257000       0.81949890
    28  C          0.65994000       0.42257000       0.68050110
    29  C          0.18154000       0.09223000       0.24603110
    30  C          0.31846000       0.59223000       0.25396890
    31  C          0.81846000       0.90777000       0.75396890
    32  C          0.68154000       0.40777000       0.74603110
    33  H          0.30986300       0.15417400       0.26459300
    34  H          0.19013700       0.65417400       0.23540700
    35  H          0.69013700       0.84582600       0.73540700
    36  H          0.80986300       0.34582600       0.76459300
    37  C          0.00505000       0.01153000       0.28296110
    38  C          0.49495000       0.51153000       0.21703890
    39  C         -0.00505000      -0.01153000       0.71703890
    40  C          0.50505000       0.48847000       0.78296110
    41  H          0.01385100       0.02006300       0.32732100
    42  H          0.48614900       0.52006300       0.17267900
    43  H         -0.01385100       0.97993700       0.67267900
    44  H          0.51385100       0.47993700       0.82732100
    45  C          0.81345000       0.91707000       0.25530120
    46  C          0.68655000       0.41707000       0.24469880
    47  C          0.18655000       0.08293000       0.74469880
    48  C          0.31345000       0.58293000       0.75530120
    49  H          0.69894500       0.86269900       0.28154900
    50  H          0.80105500       0.36269900       0.21845100
    51  H          0.30105500       0.13730100       0.71845100
    52  H          0.19894500       0.63730100       0.78154900
    53  C          0.79085000       0.90307000       0.18942110
    54  C          0.70915000       0.40307000       0.31057890
    55  C          0.20915000       0.09693000       0.81057890
    56  C          0.29085000       0.59693000       0.68942110
    57  H          0.66227000       0.84141200       0.17083600
    58  H          0.83773000       0.34141200       0.32916400
    59  H          0.33773000       0.15858800       0.82916400
    60  H          0.16227000       0.65858800       0.67083600
    61  C          0.96676000      -0.01573000       0.15253110
    62  C          0.53324000       0.48427000       0.34746890
    63  C          0.03324000       0.01573000       0.84746890
    64  C          0.46676000       0.51573000       0.65253110
    65  O          0.70553000       0.34382000       0.08172800
    66  O          0.79447000       0.84382000       0.41827200
    67  O          0.29447000       0.65618000       0.91827200
    68  O          0.20553000       0.15618000       0.58172800
    69  O          0.61653000       0.30072000       0.95630100
    70  O          0.88347000       0.80072000       0.54369900
    71  O          0.38347000       0.69928000       0.04369900
    72  O          0.11653000       0.19928000       0.45630100
    73  H          0.53850000       0.25240000       0.99258300
    74  H          0.96150000       0.75240000       0.50741700
    75  H          0.46150000       0.74760000       0.00741700
    76  H          0.03850000       0.24760000       0.49258300
    77  C          0.04334000       0.52673000       0.06752110
    78  C          0.45666000       0.02673000       0.43247890
    79  C          0.95666000       0.47327000       0.93247890
    80  C          0.54334000       0.97327000       0.56752110
    81  H          0.06713100       0.54307900       0.11119800
    82  H          0.43286900       0.04307900       0.38880200
    83  H          0.93286900       0.45692100       0.88880200
    84  H          0.56713100       0.95692100       0.61119800
    85  C          0.84444000       0.42003000       0.04557110
    86  C          0.65556000       0.92003000       0.45442890
    87  C          0.15556000       0.57997000       0.95442890
    88  C          0.34444000       0.07997000       0.54557110
    89  C          0.80584000       0.39763000       0.97442900
    90  C          0.69416000       0.89763000       0.52557100
    91  C          0.19416000       0.60237000       0.02557100
    92  C          0.30584000       0.10237000       0.47442900
