data_DADYIU
_symmetry_space_group_name_H-M    'P1'
_symmetry_Int_Tables_number       1
loop_
_symmetry_equiv_pos_site_id
_symmetry_equiv_pos_as_xyz
1 x,y,z
_cell_length_a                   10.317219
_cell_length_b                   12.7422
_cell_length_c                   13.0822
_cell_angle_alpha                67.7959
_cell_angle_beta                 71.4248
_cell_angle_gamma                72.8779
loop_
_atom_site_label
_atom_site_type_symbol
_atom_site_fract_x
_atom_site_fract_y
_atom_site_fract_z
     1  Cl         0.46512700       0.13540400       0.86143500
     2  Cl         0.53487300       0.86459600       0.13856500
     3  Cl         0.72042800       0.87403600       0.36528600
     4  Cl         0.27957200       0.12596400       0.63471400
     5  O          0.37121130       0.65424100       0.89734100
     6  O          0.62878870       0.34575900       0.10265900
     7  H          0.31971200       0.71026600       0.91546600
     8  H          0.68028800       0.28973400       0.08453400
     9  C          0.33639160       0.64645130       0.80364120
    10  C          0.66360840       0.35354870       0.19635880
    11  C          0.18250150       0.70480120       0.79990120
    12  C          0.81749850       0.29519880       0.20009880
    13  H          0.16698400       0.69801400       0.73273900
    14  H          0.83301600       0.30198600       0.26726100
    15  C          0.14894170       0.83728120       0.78564130
    16  C          0.85105830       0.16271880       0.21435870
    17  H          0.21809000       0.87796400       0.72428500
    18  H          0.78191000       0.12203600       0.27571500
    19  C          0.07456180       0.64617130       0.90363130
    20  C          0.92543820       0.35382870       0.09636870
    21  H          0.12109600       0.59362600       0.96320400
    22  H          0.87890400       0.40637400       0.03679600
    23  H          0.03242200       0.60162100       0.88173000
    24  H          0.96757800       0.39837900       0.11827000
    25  C          0.95928820       0.73919140       0.94885130
    26  C          0.04071180       0.26080860       0.05114870
    27  H          0.88591100       0.70498600       0.01117100
    28  H          0.11408900       0.29501400      -0.01117100
    29  C          0.36421150       0.51669120       0.81934120
    30  C          0.63578850       0.48330880       0.18065880
    31  C          0.30325170       0.47240130       0.76779130
    32  C          0.69674830       0.52759870       0.23220870
    33  H          0.24061600       0.52223700       0.72423900
    34  H          0.75938400       0.47776300       0.27576100
    35  C          0.33404170       0.35559140       0.78009140
    36  C          0.66595830       0.64440860       0.21990860
    37  H          0.29278900       0.32706500       0.74504000
    38  H          0.70721100       0.67293500       0.25496000
    39  C          0.42637180       0.28231130       0.84479140
    40  C          0.57362820       0.71768870       0.15520860
    41  C          0.48811190       0.32316150       0.89715150
    42  C          0.51188810       0.67683850       0.10284850
    43  H          0.55035500       0.27270400       0.94079500
    44  H          0.44964500       0.72729600       0.05920500
    45  C          0.45678170       0.44008140       0.88429130
    46  C          0.54321830       0.55991860       0.11570870
    47  H          0.49840100       0.46783400       0.91974900
    48  H          0.50159900       0.53216600       0.08025100
    49  C          0.43393160       0.70481130       0.69245130
    50  C          0.56606840       0.29518870       0.30754870
    51  C          0.42422000       0.70722180       0.58874150
    52  C          0.57578000       0.29277820       0.41125850
    53  H          0.35840100       0.67202400       0.58655800
    54  H          0.64159900       0.32797600       0.41344200
    55  C          0.50972000       0.76052190       0.48800160
    56  C          0.49028000       0.23947810       0.51199840
    57  H          0.50044200       0.76207900       0.41899700
    58  H          0.49955800       0.23792100       0.58100300
    59  C          0.60812000       0.81095160       0.49095170
    60  C          0.39188000       0.18904840       0.50904830
    61  C          0.62012000       0.81062000       0.59168190
    62  C          0.37988000       0.18938000       0.40831810
    63  H          0.68651900       0.84570700       0.59310300
    64  H          0.31348100       0.15429300       0.40689700
    65  C          0.53332000       0.75773170       0.69209170
    66  C          0.46668000       0.24226830       0.30790830
    67  H          0.54207600       0.75790200       0.76060300
    68  H          0.45792400       0.24209800       0.23939700
    69  C          0.13646190       0.85208130       0.89804140
    70  C          0.86353810       0.14791870       0.10195860
    71  C          0.03322000       0.80025140       0.98544140
    72  C          0.96678000       0.19974860       0.01455860
    73  C          0.00852000       0.80748180       0.09302160
    74  C          0.99148000       0.19251820       0.90697840
    75  H          0.93919600       0.77367300       0.15141800
    76  H          0.06080400       0.22632700       0.84858200
    77  C          0.08713000       0.86512000       0.11342000
    78  C          0.91287000       0.13488000       0.88658000
    79  H          0.07059100       0.86966300       0.18585600
    80  H          0.92940900       0.13033700       0.81414400
    81  C          0.18933000       0.91579180       0.02792000
    82  C          0.81067000       0.08420820       0.97208000
    83  H          0.24146000       0.95415700       0.04315900
    84  H          0.75854000       0.04584300       0.95684100
    85  C          0.21572000       0.91032150       0.91867180
    86  C          0.78428000       0.08967850       0.08132820
    87  H          0.28481000       0.94482100       0.86067200
    88  H          0.71519000       0.05517900       0.13932800
    89  C          0.00444170       0.88074130       0.76213130
    90  C         -0.00444170       0.11925870       0.23786870
    91  C          0.90223830       0.82683140       0.84988140
    92  C          0.09776170       0.17316860       0.15011860
    93  C          0.76528810       0.85620170       0.83969170
    94  C          0.23471190       0.14379830       0.16030830
    95  H          0.69747700       0.81998100       0.89762800
    96  H          0.30252300       0.18001900       0.10237200
    97  C          0.73018000       0.93959180       0.74297180
    98  C          0.26982000       0.06040820       0.25702820
    99  H          0.63836900       0.96005500       0.73605800
   100  H          0.36163100       0.03994500       0.26394200
   101  C          0.83088000      -0.00763840       0.65693170
   102  C          0.16912000       0.00763840       0.34306830
   103  H          0.80639700       0.04825100       0.59205200
   104  H          0.19360300       0.95174900       0.40794800
   105  C          0.96848000       0.96331140       0.66562150
   106  C          0.03152000       0.03668860       0.33437850
   107  H          0.03589600      -0.00077100       0.60686100
   108  H          0.96410400       0.00077100       0.39313900
   109  C          0.83012000       0.40292000       0.50655190
   110  C          0.16988000       0.59708000       0.49344810
   111  C          0.91662000       0.31732000       0.46282000
   112  C          0.08338000       0.68268000       0.53718000
   113  H          0.90210900       0.24184600       0.49821700
   114  H          0.09789100       0.75815400       0.50178300
   115  C          0.02412000       0.34034190       0.36794190
   116  C          0.97588000       0.65965810       0.63205810
   117  H          0.07998700       0.28057800       0.33989300
   118  H          0.92001300       0.71942200       0.66010700
   119  C          0.05002000       0.45071190       0.31401170
   120  C          0.94998000       0.54928810       0.68598830
   121  C          0.96283000       0.53648180       0.35862000
   122  C          0.03717000       0.46351820       0.64138000
   123  H          0.97771900       0.61185300       0.32420700
   124  H          0.02228100       0.38814700       0.67579300
   125  C          0.85522000       0.51322000       0.45202000
   126  C          0.14478000       0.48678000       0.54798000
   127  H          0.79780300       0.57317000       0.47914500
   128  H          0.20219700       0.42683000       0.52085500
   129  C          0.71363000       0.37674000       0.61133000
   130  C          0.28637000       0.62326000       0.38867000
   131  H          0.62782600       0.42788700       0.59614900
   132  H          0.37217400       0.57211300       0.40385100
   133  H          0.73444800       0.38756300       0.67271400
   134  H          0.26555200       0.61243700       0.32728600
   135  H          0.70433400       0.29812600       0.63178900
   136  H          0.29566600       0.70187400       0.36821100
   137  C          0.17083000       0.47543000       0.21232000
   138  C          0.82917000       0.52457000       0.78768000
   139  H          0.18707300       0.42343500       0.17019400
   140  H          0.81292700       0.57656500       0.82980600
   141  H          0.25295900       0.46485500       0.23743500
   142  H          0.74704100       0.53514500       0.76256500
   143  H          0.14922000       0.55371500       0.16453900
   144  H          0.85078000       0.44628500       0.83546100
