data_DAGHAX
_symmetry_space_group_name_H-M    'P1'
_symmetry_Int_Tables_number       1
loop_
_symmetry_equiv_pos_site_id
_symmetry_equiv_pos_as_xyz
1 x,y,z
_cell_length_a                   10.08573
_cell_length_b                   10.08573
_cell_length_c                   7.21344
_cell_angle_alpha                90.0
_cell_angle_beta                 90.0
_cell_angle_gamma                120.0
loop_
_atom_site_label
_atom_site_type_symbol
_atom_site_fract_x
_atom_site_fract_y
_atom_site_fract_z
     1  N          0.33330000       0.66670000       0.63307000
     2  N          0.66670000       0.33330000       0.13307000
     3  H          0.33330000       0.66670000       0.51330000
     4  H          0.66670000       0.33330000       0.01330000
     5  N          0.33330000       0.66670000       0.97697000
     6  N          0.66670000       0.33330000       0.47697000
     7  H          0.33330000       0.66670000       0.09660000
     8  H          0.66670000       0.33330000       0.59660000
     9  C          0.47432000       0.80572000       0.70148000
    10  C          0.19428000       0.66860000       0.70148000
    11  C          0.33140000       0.52568000       0.70148000
    12  C          0.80572000       0.47432000       0.20148000
    13  C          0.66860000       0.19428000       0.20148000
    14  C          0.52568000       0.33140000       0.20148000
    15  H          0.48640000       0.89640000       0.63920000
    16  H          0.10360000       0.59000000       0.63920000
    17  H          0.41000000       0.51360000       0.63920000
    18  H          0.89640000       0.48640000       0.13920000
    19  H          0.59000000       0.10360000       0.13920000
    20  H          0.51360000       0.41000000       0.13920000
    21  H          0.56400000       0.79680000       0.67600000
    22  H          0.20320000       0.76720000       0.67600000
    23  H          0.23280000       0.43600000       0.67600000
    24  H          0.79680000       0.56400000       0.17600000
    25  H          0.76720000       0.20320000       0.17600000
    26  H          0.43600000       0.23280000       0.17600000
    27  C          0.45769190       0.81870180       0.90968000
    28  C          0.18129820       0.63899010       0.90968000
    29  C          0.36100990       0.54230810       0.90968000
    30  C          0.81870180       0.45769190       0.40968000
    31  C          0.63899010       0.18129820       0.40968000
    32  C          0.54230810       0.36100990       0.40968000
    33  H          0.55320000       0.84590000       0.97200000
    34  H          0.15410000       0.70730000       0.97200000
    35  H          0.29270000       0.44680000       0.97200000
    36  H          0.84590000       0.55320000       0.47200000
    37  H          0.70730000       0.15410000       0.47200000
    38  H          0.44680000       0.29270000       0.47200000
    39  H          0.43160000       0.89730000       0.93530000
    40  H          0.10270000       0.53430000       0.93530000
    41  H          0.46570000       0.56840000       0.93530000
    42  H          0.89730000       0.43160000       0.43530000
    43  H          0.53430000       0.10270000       0.43530000
    44  H          0.56840000       0.46570000       0.43530000
    45  O          0.52018140       0.67768150       0.30071170
    46  O          0.32231850       0.84249990       0.30071170
    47  O          0.15750010       0.47981860       0.30071170
    48  O          0.67768150       0.52018140       0.80071170
    49  O          0.84249990       0.32231850       0.80071170
    50  O          0.47981860       0.15750010       0.80071170
    51  N          0.65344160       0.78444150       0.32721190
    52  N          0.21555850       0.86900010       0.32721190
    53  N          0.13099990       0.34655840       0.32721190
    54  N          0.78444150       0.65344160       0.82721190
    55  N          0.86900010       0.21555850       0.82721190
    56  N          0.34655840       0.13099990       0.82721190
    57  O          0.69552000       0.91568180       0.27773000
    58  O          0.08431820       0.77983820       0.27773000
    59  O          0.22016180       0.30448000       0.27773000
    60  O          0.91568180       0.69552000       0.77773000
    61  O          0.77983820       0.08431820       0.77773000
    62  O          0.30448000       0.22016180       0.77773000
    63  O          0.74565160       0.75577160       0.41173000
    64  O          0.24422840      -0.01012000       0.41173000
    65  O          0.01012000       0.25434840       0.41173000
    66  O          0.75577160       0.74565160       0.91173000
    67  O         -0.01012000       0.24422840       0.91173000
    68  O          0.25434840       0.01012000       0.91173000
    69  O         -0.00000000      -0.00000000       0.48894000
    70  O         -0.00000000      -0.00000000      -0.01106000
    71  H          0.07930000      -0.01270000       0.45140000
    72  H          0.01270000       0.09200000       0.45140000
    73  H          0.90800000       0.92070000       0.45140000
    74  H         -0.01270000       0.07930000       0.95140000
    75  H          0.09200000       0.01270000       0.95140000
    76  H          0.92070000       0.90800000       0.95140000
