data_DAKWER
_symmetry_space_group_name_H-M    'P1'
_symmetry_Int_Tables_number       1
loop_
_symmetry_equiv_pos_site_id
_symmetry_equiv_pos_as_xyz
1 x,y,z
_cell_length_a                   9.1273
_cell_length_b                   15.0775
_cell_length_c                   19.5778
_cell_angle_alpha                90.0
_cell_angle_beta                 90.0
_cell_angle_gamma                90.0
loop_
_atom_site_label
_atom_site_type_symbol
_atom_site_fract_x
_atom_site_fract_y
_atom_site_fract_z
     1  Br         0.20297110       0.34993700       0.17134500
     2  Br         0.70297110       0.15006300       0.82865500
     3  Br         0.79702890       0.84993700       0.32865500
     4  Br         0.29702890       0.65006300       0.67134500
     5  Br         0.17006110       0.37311700       0.44135600
     6  Br         0.67006110       0.12688300       0.55864400
     7  Br         0.82993890       0.87311700       0.05864400
     8  Br         0.32993890       0.62688300       0.94135600
     9  Br         0.50902120       0.41029800       0.50156600
    10  Br         0.00902120       0.08970200       0.49843400
    11  Br         0.49097880       0.91029800      -0.00156600
    12  Br        -0.00902120       0.58970200       0.00156600
    13  Br         0.78960110       0.30520700       0.42926500
    14  Br         0.28960110       0.19479300       0.57073500
    15  Br         0.21039890       0.80520700       0.07073500
    16  Br         0.71039890       0.69479300       0.92926500
    17  Cl         0.84243000       0.44352000       0.18868130
    18  Cl         0.34243000       0.05648000       0.81131870
    19  Cl         0.15757000       0.94352000       0.31131870
    20  Cl         0.65757000       0.55648000       0.68868130
    21  O          0.02607000       0.13695000       0.31854000
    22  O          0.52607000       0.36305000       0.68146000
    23  O          0.97393000       0.63695000       0.18146000
    24  O          0.47393000       0.86305000       0.81854000
    25  N          0.81279000       0.20675000       0.27834000
    26  N          0.31279000       0.29325000       0.72166000
    27  N          0.18721000       0.70675000       0.22166000
    28  N          0.68721000       0.79325000       0.77834000
    29  C          0.85421100       0.28937000       0.25255000
    30  C          0.35421100       0.21063000       0.74745000
    31  C          0.14578900       0.78937000       0.24745000
    32  C          0.64578900       0.71063000       0.75255000
    33  C          0.77131000       0.33806000       0.21075000
    34  C          0.27131000       0.16194000       0.78925000
    35  C          0.22869000       0.83806000       0.28925000
    36  C          0.72869000       0.66194000       0.71075000
    37  C          0.63161000       0.31397000       0.18165000
    38  C          0.13161000       0.18603000       0.81835000
    39  C          0.36839000       0.81397000       0.31835000
    40  C          0.86839000       0.68603000       0.68165000
    41  N          0.50439000       0.36075000       0.20054000
    42  N          0.00439000       0.13925000       0.79946000
    43  N          0.49561000       0.86075000       0.29946000
    44  N         -0.00439000       0.63925000       0.70054000
    45  C          0.40051000       0.32107000       0.16645000
    46  C          0.90051000       0.17893000       0.83355000
    47  C          0.59949000       0.82107000       0.33355000
    48  C          0.09949000       0.67893000       0.66645000
    49  N          0.44999000       0.25185000       0.12874000
    50  N          0.94999000       0.24815000       0.87126000
    51  N          0.55001000       0.75185000       0.37126000
    52  N          0.05001000       0.74815000       0.62874000
    53  C          0.59671000       0.24716000       0.13685000
    54  C          0.09671000       0.25284000       0.86315000
    55  C          0.40329000       0.74716000       0.36315000
    56  C          0.90329000       0.75284000       0.63685000
    57  C          0.68131100       0.17367000       0.10165000
    58  C          0.18131100       0.32633000       0.89835000
    59  C          0.31868900       0.67367000       0.39835000
    60  C          0.81868900       0.82633000       0.60165000
    61  C          0.65681200       0.08407000       0.13726000
    62  C          0.15681200       0.41593000       0.86274000
    63  C          0.34318800       0.58407000       0.36274000
    64  C          0.84318800       0.91593000       0.63726000
    65  C          0.60261100       0.06947000       0.19836000
    66  C          0.10261100       0.43053000       0.80164000
    67  C          0.39738900       0.56947000       0.30164000
    68  C          0.89738900       0.93053000       0.69836000
    69  C          0.55881100       0.13597000       0.25045000
    70  C          0.05881100       0.36403000       0.74955000
    71  C          0.44118900       0.63597000       0.24955000
    72  C          0.94118900       0.86403000       0.75045000
    73  N          0.42629000       0.15526000       0.26364000
    74  N          0.92629000       0.34474000       0.73636000
    75  N          0.57371000       0.65526000       0.23636000
    76  N          0.07371000       0.84474000       0.76364000
    77  C          0.42811000       0.21807000       0.32005000
    78  C          0.92811000       0.28193000       0.67995000
    79  C          0.57189000       0.71807000       0.17995000
    80  C          0.07189000       0.78193000       0.82005000
    81  C          0.31011100       0.25737000       0.34955000
    82  C          0.81011100       0.24263000       0.65045000
    83  C          0.68988900       0.75737000       0.15045000
    84  C          0.18988900       0.74263000       0.84955000
    85  C          0.33511000       0.31806000       0.40295000
    86  C          0.83511000       0.18194000       0.59705000
    87  C          0.66489000       0.81806000       0.09705000
    88  C          0.16489000       0.68194000       0.90295000
    89  C          0.47771000       0.33086000       0.42815000
    90  C          0.97771000       0.16914000       0.57185000
    91  C          0.52229000       0.83086000       0.07185000
    92  C          0.02229000       0.66914000       0.92815000
    93  C          0.59551000       0.28677000       0.39765000
    94  C          0.09551000       0.21323000       0.60235000
    95  C          0.40449000       0.78677000       0.10235000
    96  C          0.90449000       0.71323000       0.89765000
    97  C          0.57141000       0.23106000       0.34425000
    98  C          0.07141000       0.26894000       0.65575000
    99  C          0.42859000       0.73106000       0.15575000
   100  C          0.92859000       0.76894000       0.84425000
   101  C          0.67011000       0.17216000       0.30265000
   102  C          0.17011000       0.32784000       0.69735000
   103  C          0.32989000       0.67216000       0.19735000
   104  C          0.82989000       0.82784000       0.80265000
   105  C          0.76061100       0.09957000       0.34135000
   106  C          0.26061100       0.40043000       0.65865000
   107  C          0.23938900       0.59957000       0.15865000
   108  C          0.73938900       0.90043000       0.84135000
   109  C          0.89931100       0.14496000       0.31375000
   110  C          0.39931100       0.35504000       0.68625000
   111  C          0.10068900       0.64496000       0.18625000
   112  C          0.60068900       0.85504000       0.81375000
   113  C          0.62781300       0.16309000       0.02686000
   114  C          0.12781300       0.33691000       0.97314000
   115  C          0.37218700       0.66309000       0.47314000
   116  C          0.87218700       0.83691000       0.52686000
   117  C          0.84811300       0.19189000       0.09817000
   118  C          0.34811300       0.30811000       0.90183000
   119  C          0.15188700       0.69189000       0.40183000
   120  C          0.65188700       0.80811000       0.59817000
   121  H          0.93612000       0.30780000       0.26560000
   122  H          0.43612000       0.19220000       0.73440000
   123  H          0.06388000       0.80780000       0.23440000
   124  H          0.56388000       0.69220000       0.76560000
   125  H          0.40413000       0.21780000       0.11060000
   126  H          0.90413000       0.28220000       0.88940000
   127  H          0.59587000       0.71780000       0.38940000
   128  H          0.09587000       0.78220000       0.61060000
   129  H          0.68612000       0.03770000       0.11060000
   130  H          0.18612000       0.46230000       0.88940000
   131  H          0.31388000       0.53770000       0.38940000
   132  H          0.81388000       0.96230000       0.61060000
   133  H          0.59012000       0.00880000       0.21660000
   134  H          0.09012000       0.49120000       0.78340000
   135  H          0.40988000       0.50880000       0.28340000
   136  H          0.90988000      -0.00880000       0.71660000
   137  H          0.20812000       0.25570000       0.32860000
   138  H          0.70812000       0.24430000       0.67140000
   139  H          0.79188000       0.75570000       0.17140000
   140  H          0.29188000       0.74430000       0.82860000
   141  H          0.74411000       0.02970000       0.31450000
   142  H          0.24411000       0.47030000       0.68550000
   143  H          0.25589000       0.52970000       0.18550000
   144  H          0.75589000       0.97030000       0.81450000
   145  H          0.73011000       0.11270000       0.39160000
   146  H          0.23011000       0.38730000       0.60840000
   147  H          0.26989000       0.61270000       0.10840000
   148  H          0.76989000       0.88730000       0.89160000
   149  H          0.52713000       0.14870000       0.02760000
   150  H          0.02713000       0.35130000       0.97240000
   151  H          0.47287000       0.64870000       0.47240000
   152  H          0.97287000       0.85130000       0.52760000
   153  H          0.63511000       0.21580000       0.00260000
   154  H          0.13511000       0.28420000      -0.00260000
   155  H          0.36489000       0.71580000       0.49740000
   156  H          0.86489000       0.78420000       0.50260000
   157  H          0.66611000       0.10470000       0.00150000
   158  H          0.16611000       0.39530000      -0.00150000
   159  H          0.33389000       0.60470000       0.49850000
   160  H          0.83389000       0.89530000       0.50150000
   161  H          0.83913000       0.23880000       0.07960000
   162  H          0.33913000       0.26120000       0.92040000
   163  H          0.16087000       0.73880000       0.42040000
   164  H          0.66087000       0.76120000       0.57960000
   165  H          0.88912000       0.19280000       0.14360000
   166  H          0.38912000       0.30720000       0.85640000
   167  H          0.11088000       0.69280000       0.35640000
   168  H          0.61088000       0.80720000       0.64360000
   169  H          0.88512000       0.15780000       0.07360000
   170  H          0.38512000       0.34220000       0.92640000
   171  H          0.11488000       0.65780000       0.42640000
   172  H          0.61488000       0.84220000       0.57360000
   173  C          0.32620000       0.95431000       0.65286000
   174  C          0.82620000       0.54569000       0.34714000
   175  C          0.67380000       0.45431000       0.84714000
   176  C          0.17380000       0.04569000       0.15286000
   177  C          0.31261100       0.92564000       0.58025000
   178  C          0.81261100       0.57436000       0.41975000
   179  C          0.68738900       0.42564000       0.91975000
   180  C          0.18738900       0.07436000       0.08025000
   181  C          0.37920000       0.95612000       0.46526000
   182  C          0.87920000       0.54388000       0.53474000
   183  C          0.62080000       0.45612000       0.03474000
   184  C          0.12080000       0.04388000       0.96526000
   185  C          0.43920000       0.02811000       0.42587000
   186  C          0.93920000       0.47189000       0.57413000
   187  C          0.56080000       0.52811000       0.07413000
   188  C          0.06080000       0.97189000       0.92587000
   189  O          0.24528000       0.86165000       0.55944000
   190  O          0.74528000       0.63835000       0.44056000
   191  O          0.75472000       0.36165000       0.94056000
   192  O          0.25472000       0.13835000       0.05944000
   193  O          0.39168000       0.97665000       0.53723000
   194  O          0.89168000       0.52335000       0.46277000
   195  O          0.60832000       0.47665000       0.96277000
   196  O          0.10832000       0.02335000       0.03723000
   197  H          0.41630000       0.90820000       0.45660000
   198  H          0.91630000       0.59180000       0.54340000
   199  H          0.58370000       0.40820000       0.04340000
   200  H          0.08370000       0.09180000       0.95660000
   201  H          0.29313000       0.94620000       0.45860000
   202  H          0.79313000       0.55380000       0.54140000
   203  H          0.70687000       0.44620000       0.04140000
   204  H          0.20687000       0.05380000       0.95860000
   205  H          0.25713000      -0.00880000       0.65960000
   206  H          0.75713000       0.50880000       0.34040000
   207  H          0.74287000       0.49120000       0.84040000
   208  H          0.24287000       0.00880000       0.15960000
   209  H          0.31612000       0.90120000       0.68150000
   210  H          0.81612000       0.59880000       0.31850000
   211  H          0.68388000       0.40120000       0.81850000
   212  H          0.18388000       0.09880000       0.18150000
   213  H          0.40213000       0.99020000       0.66060000
   214  H          0.90213000       0.50980000       0.33940000
   215  H          0.59787000       0.49020000       0.83940000
   216  H          0.09787000       0.00980000       0.16060000
   217  H          0.41313000       0.08580000       0.42860000
   218  H          0.91313000       0.41420000       0.57140000
   219  H          0.58687000       0.58580000       0.07140000
   220  H          0.08687000       0.91420000       0.92860000
   221  H          0.53413000       0.04180000       0.43160000
   222  H          0.03413000       0.45820000       0.56840000
   223  H          0.46587000       0.54180000       0.06840000
   224  H          0.96587000       0.95820000       0.93160000
   225  H          0.43312000       0.03070000       0.36160000
   226  H          0.93312000       0.46930000       0.63840000
   227  H          0.56688000       0.53070000       0.13840000
   228  H          0.06688000       0.96930000       0.86160000
