data_DAQXOJ
_symmetry_space_group_name_H-M    'P1'
_symmetry_Int_Tables_number       1
loop_
_symmetry_equiv_pos_site_id
_symmetry_equiv_pos_as_xyz
1 x,y,z
_cell_length_a                   6.479401
_cell_length_b                   18.65782
_cell_length_c                   11.01664
_cell_angle_alpha                90.0
_cell_angle_beta                 91.22901
_cell_angle_gamma                90.0
loop_
_atom_site_label
_atom_site_type_symbol
_atom_site_fract_x
_atom_site_fract_y
_atom_site_fract_z
     1  O          0.39172850       0.26337600       0.11986900
     2  O          0.60827150       0.76337600       0.38013100
     3  O          0.60827150       0.73662400       0.88013100
     4  O          0.39172850       0.23662400       0.61986900
     5  O          0.70929850       0.28393500       0.19803800
     6  O          0.29070150       0.78393500       0.30196200
     7  O          0.29070150       0.71606500       0.80196200
     8  O          0.70929850       0.21606500       0.69803800
     9  O          0.55576840       0.24405600       0.90280200
    10  O          0.44423160       0.74405600       0.59719800
    11  O          0.44423160       0.75594400       0.09719800
    12  O          0.55576840       0.25594400       0.40280200
    13  O          0.83657840       0.30535600       0.96563100
    14  O          0.16342160       0.80535600       0.53436900
    15  O          0.16342160       0.69464400       0.03436900
    16  O          0.83657840       0.19464400       0.46563100
    17  C          0.57868000       0.27454700       0.11219120
    18  C          0.42132000       0.77454700       0.38780880
    19  C          0.42132000       0.72545300       0.88780880
    20  C          0.57868000       0.22545300       0.61219120
    21  C          0.67158000       0.27701700       0.98364880
    22  C          0.32842000       0.77701700       0.51635120
    23  C          0.32842000       0.72298300       0.01635120
    24  C          0.67158000       0.22298300       0.48364880
    25  H          0.62260000       0.23731400       0.81880000
    26  H          0.37740000       0.73731400       0.68120000
    27  H          0.37740000       0.76268600       0.18120000
    28  H          0.62260000       0.26268600       0.31880000
    29  N          0.07039180       0.38449600       0.18227100
    30  N          0.92960820       0.88449600       0.31772900
    31  N          0.92960820       0.61550400       0.81772900
    32  N          0.07039180       0.11550400       0.68227100
    33  C          0.19262000       0.37250800       0.29699120
    34  C          0.80738000       0.87250800       0.20300880
    35  C          0.80738000       0.62749200       0.70300880
    36  C          0.19262000       0.12749200       0.79699120
    37  H          0.01330000       0.34331000       0.15741500
    38  H         -0.01330000       0.84331000       0.34258500
    39  H         -0.01330000       0.65669000       0.84258500
    40  H          0.01330000       0.15669000       0.65741500
    41  N          0.17359190       0.35051800       0.51605100
    42  N          0.82640810       0.85051800       0.98394900
    43  N          0.82640810       0.64948200       0.48394900
    44  N          0.17359190       0.14948200       0.01605100
    45  C          0.05352000       0.35371900       0.40115120
    46  C          0.94648000       0.85371900       0.09884880
    47  C          0.94648000       0.64628100       0.59884880
    48  C          0.05352000       0.14628100       0.90115120
    49  H          0.16130000       0.39811000       0.12071600
    50  H          0.83870000       0.89811000       0.37928400
    51  H          0.83870000       0.60189000       0.87928400
    52  H          0.16130000       0.10189000       0.62071600
    53  N          0.20289190       0.44150700       0.75095120
    54  N          0.79710810       0.94150700       0.74904880
    55  N          0.79710810       0.55849300       0.24904880
    56  N          0.20289190       0.05849300       0.25095120
    57  C          0.04022000       0.34485800       0.62517120
    58  C          0.95978000       0.84485800       0.87482880
    59  C          0.95978000       0.65514200       0.37482880
    60  C          0.04022000       0.15514200       0.12517120
    61  H          0.25940000       0.31001500       0.51720000
    62  H          0.74060000       0.81001500       0.98280000
    63  H          0.74060000       0.68998500       0.48280000
    64  H          0.25940000       0.18998500       0.01720000
    65  C          0.15683000       0.36367800       0.74072130
    66  C          0.84317000       0.86367800       0.75927870
    67  C          0.84317000       0.63632200       0.25927870
    68  C          0.15683000       0.13632200       0.24072130
    69  H          0.25640000       0.39221600       0.52320000
    70  H          0.74360000       0.89221600       0.97680000
    71  H          0.74360000       0.60778400       0.47680000
    72  H          0.25640000       0.10778400       0.02320000
    73  C          0.02132000       0.48763800       0.77166150
    74  C         -0.02132000       0.98763800       0.72833850
    75  C         -0.02132000       0.51236200       0.22833850
    76  C          0.02132000       0.01236200       0.27166150
    77  H          0.30040000       0.44841600       0.81630000
    78  H          0.69960000       0.94841600       0.68370000
    79  H          0.69960000       0.55158400       0.18370000
    80  H          0.30040000       0.05158400       0.31630000
    81  C          0.90198000       0.43893700       0.18775130
    82  C          0.09802000       0.93893700       0.31224870
    83  C          0.09802000       0.56106300       0.81224870
    84  C          0.90198000       0.06106300       0.68775130
    85  H          0.26540000       0.45631400       0.67620000
    86  H          0.73460000       0.95631400       0.82380000
    87  H          0.73460000       0.54368600       0.32380000
    88  H          0.26540000       0.04368600       0.17620000
    89  H          0.26330000       0.41671000       0.31581600
    90  H          0.73670000       0.91671000       0.18418400
    91  H          0.73670000       0.58329000       0.68418400
    92  H          0.26330000       0.08329000       0.81581600
    93  H          0.28430000       0.33499000       0.28121500
    94  H          0.71570000       0.83499000       0.21878500
    95  H          0.71570000       0.66501000       0.71878500
    96  H          0.28430000       0.16501000       0.78121500
    97  H          0.95260000       0.39041300       0.41520000
    98  H          0.04740000       0.89041300       0.08480000
    99  H          0.04740000       0.60958700       0.58480000
   100  H          0.95260000       0.10958700       0.91520000
   101  H         -0.00730000       0.30931200       0.38791800
   102  H          0.00730000       0.80931200       0.11208200
   103  H          0.00730000       0.69068800       0.61208200
   104  H         -0.00730000       0.19068800       0.88791800
   105  H          0.91870000       0.37509000       0.60901500
   106  H          0.08130000       0.87509000       0.89098500
   107  H          0.08130000       0.62491000       0.39098500
   108  H          0.91870000       0.12491000       0.10901500
   109  H         -0.00320000       0.29489000       0.62961500
   110  H          0.00320000       0.79489000       0.87038500
   111  H          0.00320000       0.70511000       0.37038500
   112  H         -0.00320000       0.20511000       0.12961500
   113  H          0.28230000       0.33901000       0.74671700
   114  H          0.71770000       0.83901000       0.75328300
   115  H          0.71770000       0.66099000       0.25328300
   116  H          0.28230000       0.16099000       0.24671700
   117  H          0.07730000       0.35149000       0.81281600
   118  H          0.92270000       0.85149000       0.68718400
   119  H          0.92270000       0.64851000       0.18718400
   120  H          0.07730000       0.14851000       0.31281600
   121  H          0.94070000       0.48961100       0.69520000
   122  H          0.05930000       0.98961100       0.80480000
   123  H          0.05930000       0.51038900       0.30480000
   124  H          0.94070000       0.01038900       0.19520000
   125  H          0.93670000       0.46591200       0.83411900
   126  H          0.06330000       0.96591200       0.66588100
   127  H          0.06330000       0.53408800       0.16588100
   128  H          0.93670000       0.03408800       0.33411900
   129  H          0.79470000       0.42149000       0.24251600
   130  H          0.20530000       0.92149000       0.25748400
   131  H          0.20530000       0.57851000       0.75748400
   132  H          0.79470000       0.07851000       0.74251600
   133  H          0.84470000       0.44099000       0.10631600
   134  H          0.15530000       0.94099000       0.39368400
   135  H          0.15530000       0.55901000       0.89368400
   136  H          0.84470000       0.05901000       0.60631600
   137  O          0.29639160       0.43760600      -0.00102900
   138  O          0.70360840       0.93760600       0.50102900
   139  O          0.70360840       0.56239400       0.00102900
   140  O          0.29639160       0.06239400       0.49897100
   141  O          0.45490160       0.49133600       0.15560900
   142  O          0.54509840       0.99133600       0.34439100
   143  O          0.54509840       0.50866400       0.84439100
   144  O          0.45490160       0.00866400       0.65560900
   145  C          0.42922000       0.47959700       0.04537120
   146  C          0.57078000       0.97959700       0.45462880
   147  C          0.57078000       0.52040300       0.95462880
   148  C          0.42922000       0.02040300       0.54537120
   149  O          0.45451180       0.58295600       0.43105150
   150  O          0.54548820       0.08295600       0.06894850
   151  O          0.54548820       0.41704400       0.56894850
   152  O          0.45451180       0.91704400       0.93105150
   153  O          0.23330150       0.50756600       0.51459100
   154  O          0.76669850       0.00756600       0.98540900
   155  O          0.76669850       0.49243400       0.48540900
   156  O          0.23330150       0.99243400       0.01459100
   157  C          0.40992000       0.52632700       0.48405120
   158  C          0.59008000       0.02632700       0.01594880
   159  C          0.59008000       0.47367300       0.51594880
   160  C          0.40992000       0.97367300       0.98405120
