data_DAQZUT
_symmetry_space_group_name_H-M    'P1'
_symmetry_Int_Tables_number       1
loop_
_symmetry_equiv_pos_site_id
_symmetry_equiv_pos_as_xyz
1 x,y,z
_cell_length_a                   20.69186
_cell_length_b                   4.6142112
_cell_length_c                   20.10995
_cell_angle_alpha                90.0
_cell_angle_beta                 90.6732
_cell_angle_gamma                90.0
loop_
_atom_site_label
_atom_site_type_symbol
_atom_site_fract_x
_atom_site_fract_y
_atom_site_fract_z
     1  Cl         0.92048300       0.58794840       0.47543400
     2  Cl         0.07951700       0.08794840       0.02456600
     3  Cl         0.07951700       0.41205160       0.52456600
     4  Cl         0.92048300       0.91205160       0.97543400
     5  Cl         0.98360400       0.30082000       0.67605400
     6  Cl         0.01639600       0.80082000       0.82394600
     7  Cl         0.01639600       0.69918000       0.32394600
     8  Cl         0.98360400       0.19918000       0.17605400
     9  O          0.57854100       0.47595000       0.45384100
    10  O          0.42145900      -0.02405000       0.04615900
    11  O          0.42145900       0.52405000       0.54615900
    12  O          0.57854100       0.02405000       0.95384100
    13  O          0.61310110       0.64445000       0.35595110
    14  O          0.38689890       0.14445000       0.14404890
    15  O          0.38689890       0.35555000       0.64404890
    16  O          0.61310110       0.85555000       0.85595110
    17  H          0.58330000       0.77714000       0.35630000
    18  H          0.41670000       0.27714000       0.14370000
    19  H          0.41670000       0.22286000       0.64370000
    20  H          0.58330000       0.72286000       0.85630000
    21  N          0.75105110       0.02435000       0.44707120
    22  N          0.24894890       0.52435000       0.05292880
    23  N          0.24894890      -0.02435000       0.55292880
    24  N          0.75105110       0.47565000       0.94707120
    25  N          0.69148110       0.13026000       0.45897120
    26  N          0.30851890       0.63026000       0.04102880
    27  N          0.30851890       0.86974000       0.54102880
    28  N          0.69148110       0.36974000       0.95897120
    29  C          0.61814140       0.48537000       0.40976140
    30  C          0.38185860      -0.01463000       0.09023860
    31  C          0.38185860       0.51463000       0.59023860
    32  C          0.61814140       0.01463000       0.90976140
    33  C          0.67948130       0.32116000       0.41102140
    34  C          0.32051870       0.82116000       0.08897860
    35  C          0.32051870       0.67884000       0.58897860
    36  C          0.67948130       0.17884000       0.91102140
    37  C          0.73241140       0.34466000       0.36659140
    38  C          0.26758860       0.84466000       0.13340860
    39  C          0.26758860       0.65534000       0.63340860
    40  C          0.73241140       0.15534000       0.86659140
    41  C          0.74743150       0.51307000       0.31024140
    42  C          0.25256850       0.01307000       0.18975860
    43  C          0.25256850       0.48693000       0.68975860
    44  C          0.74743150      -0.01307000       0.81024140
    45  H          0.71740000       0.64800000       0.29210000
    46  H          0.28260000       0.14800000       0.20790000
    47  H          0.28260000       0.35200000       0.70790000
    48  H          0.71740000       0.85200000       0.79210000
    49  C          0.80736160       0.47417000       0.28249150
    50  C          0.19263840      -0.02583000       0.21750850
    51  C          0.19263840       0.52583000       0.71750850
    52  C          0.80736160       0.02583000       0.78249150
    53  H          0.81860000       0.58470000       0.24450000
    54  H          0.18140000       0.08470000       0.25550000
    55  H          0.18140000       0.41530000       0.75550000
    56  H          0.81860000       0.91530000       0.74450000
    57  C          0.85223150       0.27557000       0.30888150
    58  C          0.14776850       0.77557000       0.19111850
    59  C          0.14776850       0.72443000       0.69111850
    60  C          0.85223150       0.22443000       0.80888150
    61  H          0.89300000       0.25600000       0.28820000
    62  H          0.10700000       0.75600000       0.21180000
    63  H          0.10700000       0.74400000       0.71180000
    64  H          0.89300000       0.24400000       0.78820000
    65  C          0.83912150       0.10787000       0.36383150
    66  C          0.16087850       0.60787000       0.13616850
    67  C          0.16087850       0.89213000       0.63616850
    68  C          0.83912150       0.39213000       0.86383150
    69  H          0.86950000      -0.02740000       0.38140000
    70  H          0.13050000       0.47260000       0.11860000
    71  H          0.13050000       0.02740000       0.61860000
    72  H          0.86950000       0.52740000       0.88140000
    73  C          0.77814140       0.14916000       0.39220140
    74  C          0.22185860       0.64916000       0.10779860
    75  C          0.22185860       0.85084000       0.60779860
    76  C          0.77814140       0.35084000       0.89220140
    77  C          0.78029130       0.80764000       0.49059140
    78  C          0.21970870       0.30764000       0.00940860
    79  C          0.21970870       0.19236000       0.50940860
    80  C          0.78029130       0.69236000       0.99059140
    81  H          0.79920000       0.65190000       0.46320000
    82  H          0.20080000       0.15190000       0.03680000
    83  H          0.20080000       0.34810000       0.53680000
    84  H          0.79920000       0.84810000       0.96320000
    85  H          0.74630000       0.72020000       0.51850000
    86  H          0.25370000       0.22020000       0.98150000
    87  H          0.25370000       0.27980000       0.48150000
    88  H          0.74630000       0.77980000       0.01850000
    89  C          0.83244130       0.93454000       0.53525140
    90  C          0.16755870       0.43454000       0.96474860
    91  C          0.16755870       0.06546000       0.46474860
    92  C          0.83244130       0.56546000       0.03525140
    93  C          0.89645140       0.84454000       0.53356140
    94  C          0.10354860       0.34454000       0.96643860
    95  C          0.10354860       0.15546000       0.46643860
    96  C          0.89645140       0.65546000       0.03356140
    97  C          0.94334140       0.95223000       0.57657150
    98  C          0.05665860       0.45223000       0.92342850
    99  C          0.05665860       0.04777000       0.42342850
   100  C          0.94334140       0.54777000       0.07657150
   101  H          0.98670000       0.88500000       0.57500000
   102  H          0.01330000       0.38500000       0.92500000
   103  H          0.01330000       0.11500000       0.42500000
   104  H          0.98670000       0.61500000       0.07500000
   105  C          0.92499150       0.16137000       0.62203140
   106  C          0.07500850       0.66137000       0.87796860
   107  C          0.07500850       0.83863000       0.37796860
   108  C          0.92499150       0.33863000       0.12203140
   109  C          0.86233150       0.26127000       0.62481150
   110  C          0.13766850       0.76127000       0.87518850
   111  C          0.13766850       0.73873000       0.37518850
   112  C          0.86233150       0.23873000       0.12481150
   113  H          0.85070000       0.40620000       0.65600000
   114  H          0.14930000       0.90620000       0.84400000
   115  H          0.14930000       0.59380000       0.34400000
   116  H          0.85070000       0.09380000       0.15600000
   117  C          0.81657140       0.14707000       0.58149140
   118  C          0.18342860       0.64707000       0.91850860
   119  C          0.18342860       0.85293000       0.41850860
   120  C          0.81657140       0.35293000       0.08149140
   121  H          0.77330000       0.21510000       0.58330000
   122  H          0.22670000       0.71510000       0.91670000
   123  H          0.22670000       0.78490000       0.41670000
   124  H          0.77330000       0.28490000       0.08330000
   125  O          0.51924100      -0.00625000       0.34503110
   126  O          0.48075900       0.49375000       0.15496890
   127  O          0.48075900       0.00625000       0.65496890
   128  O          0.51924100       0.50625000       0.84503110
   129  N          0.46406140       0.85306000       0.43490130
   130  N          0.53593860       0.35306000       0.06509870
   131  N          0.53593860       0.14694000       0.56509870
   132  N          0.46406140       0.64694000       0.93490130
   133  H          0.43220000       0.84690000       0.45820000
   134  H          0.56780000       0.34690000       0.04180000
   135  H          0.56780000       0.15310000       0.54180000
   136  H          0.43220000       0.65310000       0.95820000
   137  H          0.49520000       0.74610000       0.44620000
   138  H          0.50480000       0.24610000       0.05380000
   139  H          0.50480000       0.25390000       0.55380000
   140  H          0.49520000       0.75390000       0.94620000
   141  N          0.31364130       0.42457000       0.37837140
   142  N          0.68635870       0.92457000       0.12162860
   143  N          0.68635870       0.57543000       0.62162860
   144  N          0.31364130       0.07543000       0.87837140
   145  C          0.47054140       0.01046000       0.38045140
   146  C          0.52945860       0.51046000       0.11954860
   147  C          0.52945860      -0.01046000       0.61954860
   148  C          0.47054140       0.48954000       0.88045140
   149  C          0.41785140       0.21256000       0.36009140
   150  C          0.58214860       0.71256000       0.13990860
   151  C          0.58214860       0.78744000       0.63990860
   152  C          0.41785140       0.28744000       0.86009140
   153  C          0.36164150       0.24807000       0.39658160
   154  C          0.63835850       0.74807000       0.10341840
   155  C          0.63835850       0.75193000       0.60341840
   156  C          0.36164150       0.25193000       0.89658160
   157  H          0.35730000       0.14060000       0.43660000
   158  H          0.64270000       0.64060000       0.06340000
   159  H          0.64270000       0.85940000       0.56340000
   160  H          0.35730000       0.35940000       0.93660000
   161  C          0.32123160       0.57377000       0.32195160
   162  C          0.67876840       0.07377000       0.17804840
   163  C          0.67876840       0.42623000       0.67804840
   164  C          0.32123160       0.92623000       0.82195160
   165  H          0.28740000       0.70070000       0.30840000
   166  H          0.71260000       0.20070000       0.19160000
   167  H          0.71260000       0.29930000       0.69160000
   168  H          0.28740000       0.79930000       0.80840000
   169  C          0.37498150       0.55507000       0.28219150
   170  C          0.62501850       0.05507000       0.21780850
   171  C          0.62501850       0.44493000       0.71780850
   172  C          0.37498150       0.94493000       0.78219150
   173  H          0.37800000       0.66550000       0.24250000
   174  H          0.62200000       0.16550000       0.25750000
   175  H          0.62200000       0.33450000       0.75750000
   176  H          0.37800000       0.83450000       0.74250000
   177  C          0.42447140       0.37037000       0.30191140
   178  C          0.57552860       0.87037000       0.19808860
   179  C          0.57552860       0.62963000       0.69808860
   180  C          0.42447140       0.12963000       0.80191140
   181  H          0.46230000       0.35210000       0.27600000
   182  H          0.53770000       0.85210000       0.22400000
   183  H          0.53770000       0.64790000       0.72400000
   184  H          0.46230000       0.14790000       0.77600000
