data_DARBAC
_symmetry_space_group_name_H-M    'P1'
_symmetry_Int_Tables_number       1
loop_
_symmetry_equiv_pos_site_id
_symmetry_equiv_pos_as_xyz
1 x,y,z
_cell_length_a                   10.37877
_cell_length_b                   11.87199
_cell_length_c                   14.04098
_cell_angle_alpha                105.1396
_cell_angle_beta                 91.6515
_cell_angle_gamma                91.9066
loop_
_atom_site_label
_atom_site_type_symbol
_atom_site_fract_x
_atom_site_fract_y
_atom_site_fract_z
     1  Cl         0.93717100       0.28739800       0.08240700
     2  Cl         0.06282900       0.71260200       0.91759300
     3  Cl         0.89957840       0.75304110       0.18514900
     4  Cl         0.10042160       0.24695890       0.81485100
     5  O          0.44562000       0.46632000       0.41618190
     6  O          0.55438000       0.53368000       0.58381810
     7  O          0.45373000       0.29013000       0.44302000
     8  O          0.54627000       0.70987000       0.55698000
     9  N          0.26973000       0.29143000       0.15172000
    10  N          0.73027000       0.70857000       0.84828000
    11  N          0.33483000       0.36513000       0.22982000
    12  N          0.66517000       0.63487000       0.77018000
    13  C          0.42503000       0.35513000       0.39113000
    14  C          0.57497000       0.64487000       0.60887000
    15  C          0.35883000       0.30203000       0.29293000
    16  C          0.64117000       0.69797000       0.70707000
    17  C          0.30654000       0.18704000       0.25753000
    18  C          0.69346000       0.81296000       0.74247000
    19  C          0.29377000       0.08784000       0.29404000
    20  C          0.70623000       0.91216000       0.70596000
    21  H          0.33290000       0.08720000       0.35580000
    22  H          0.66710000       0.91280000       0.64420000
    23  C          0.22349000      -0.00835000       0.23865000
    24  C          0.77651000       0.00835000       0.76135000
    25  H          0.21250000       0.92500000       0.26340000
    26  H          0.78750000       0.07500000       0.73660000
    27  C          0.16718000      -0.01005000       0.14545000
    28  C          0.83282000       0.01005000       0.85455000
    29  H          0.11930000       0.92210000       0.10870000
    30  H          0.88070000       0.07790000       0.89130000
    31  C          0.18026000       0.08484000       0.10694000
    32  C          0.81974000       0.91516000       0.89306000
    33  H          0.14430000       0.08310000       0.04360000
    34  H          0.85570000       0.91690000       0.95640000
    35  C          0.24844000       0.18374000       0.16463000
    36  C          0.75156000       0.81626000       0.83537000
    37  C          0.22824000       0.33514000       0.06733000
    38  C          0.77176000       0.66486000       0.93267000
    39  H          0.18050000       0.27140000       0.01780000
    40  H          0.81950000       0.72860000       0.98220000
    41  H          0.30530000       0.35820000       0.03590000
    42  H          0.69470000       0.64180000       0.96410000
    43  C          0.14384000       0.43754000       0.09682000
    44  C          0.85616000       0.56246000       0.90318000
    45  C          0.01174000       0.42643000       0.10663000
    46  C         -0.01174000       0.57357000       0.89337000
    47  C          0.93446000       0.52154000       0.13393000
    48  C          0.06554000       0.47846000       0.86607000
    49  H          0.84420000       0.51140000       0.14000000
    50  H          0.15580000       0.48860000       0.86000000
    51  C         -0.00675000       0.63144000       0.15193000
    52  C          0.00675000       0.36856000       0.84807000
    53  C          0.12455000       0.64714000       0.14353000
    54  C          0.87545000       0.35286000       0.85647000
    55  H          0.16320000       0.72350000       0.15680000
    56  H          0.83680000       0.27650000       0.84320000
    57  C          0.19875000       0.55044000       0.11563000
    58  C          0.80125000       0.44956000       0.88437000
    59  H          0.28880000       0.56100000       0.10900000
    60  H          0.71120000       0.43900000       0.89100000
    61  Cl         0.03017900       0.31571110       0.33219800
    62  Cl         0.96982100       0.68428890       0.66780200
    63  Cl         0.18579130       0.76680130       0.40714900
    64  Cl         0.81420870       0.23319870       0.59285100
    65  O          0.55523000       0.47513000       0.07132000
    66  O          0.44477000       0.52487000       0.92868000
    67  O          0.53583000       0.28953000       0.98002000
    68  O          0.46417000       0.71047000       0.01998000
    69  N          0.66503000       0.40453000       0.22422000
    70  N          0.33497000       0.59547000       0.77578000
    71  N          0.71203000       0.34183000       0.28492000
    72  N          0.28797000       0.65817000       0.71508000
    73  C          0.56753000       0.36423000       0.05753000
    74  C          0.43247000       0.63577000       0.94247000
    75  C          0.62353000       0.32653000       0.14243000
    76  C          0.37647000       0.67347000       0.85757000
    77  C          0.64203000       0.20964000       0.14753000
    78  C          0.35797000       0.79036000       0.85247000
    79  C          0.61924000       0.09764000       0.08544000
    80  C          0.38076000       0.90236000       0.91456000
    81  H          0.58070000       0.08590000       0.02120000
    82  H          0.41930000       0.91410000       0.97880000
    83  C          0.65475000       0.00395000       0.12094000
    84  C          0.34525000      -0.00395000       0.87906000
    85  H          0.63990000       0.92670000       0.08010000
    86  H          0.36010000       0.07330000       0.91990000
    87  C          0.71195000       0.02065000       0.21564000
    88  C          0.28805000       0.97935000       0.78436000
    89  H          0.73520000       0.95430000       0.23710000
    90  H          0.26480000       0.04570000       0.76290000
    91  C          0.73514000       0.12995000       0.27814000
    92  C          0.26486000       0.87005000       0.72186000
    93  H          0.77360000       0.14070000       0.34230000
    94  H          0.22640000       0.85930000       0.65770000
    95  C          0.69943000       0.22484000       0.24303000
    96  C          0.30057000       0.77516000       0.75697000
    97  C          0.76004000       0.40224000       0.38463000
    98  C          0.23996000       0.59776000       0.61537000
    99  H          0.79190000       0.34390000       0.41770000
   100  H          0.20810000       0.65610000       0.58230000
   101  H          0.68760000       0.44120000       0.42260000
   102  H          0.31240000       0.55880000       0.57740000
   103  C          0.86654000       0.49174000       0.38673000
   104  C          0.13346000       0.50826000       0.61327000
   105  C         -0.00706000       0.46154000       0.36563000
   106  C          0.00706000       0.53846000       0.63437000
   107  C          0.09214000       0.54504000       0.37063000
   108  C          0.90786000       0.45496000       0.62937000
   109  H          0.17770000       0.52270000       0.35520000
   110  H          0.82230000       0.47730000       0.64480000
   111  C          0.06254000       0.65975000       0.39823000
   112  C          0.93746000       0.34025000       0.60177000
   113  C          0.93925000       0.69535000       0.41953000
   114  C          0.06075000       0.30465000       0.58047000
   115  H          0.92100000       0.77590000       0.43770000
   116  H          0.07900000       0.22410000       0.56230000
   117  C          0.84214000       0.60995000       0.41363000
   118  C          0.15786000       0.39005000       0.58637000
   119  H          0.75660000       0.63310000       0.42830000
   120  H          0.24340000       0.36690000       0.57170000
   121  N          0.49514000       0.28814000       0.63223000
   122  N          0.50486000       0.71186000       0.36777000
   123  N          0.50504000       0.28234000       0.78283000
   124  N          0.49496000       0.71766000       0.21717000
   125  H          0.50550000       0.28750000       0.84940000
   126  H          0.49450000       0.71250000       0.15060000
   127  C          0.49945000       0.35635000       0.72424000
   128  C          0.50055000       0.64365000       0.27576000
   129  H          0.49880000       0.43910000       0.74430000
   130  H          0.50120000       0.56090000       0.25570000
   131  C          0.50697000       0.17215000       0.72525000
   132  C          0.49303000       0.82785000       0.27475000
   133  H          0.51190000       0.10330000       0.74740000
   134  H          0.48810000       0.89670000       0.25260000
   135  C          0.50056000       0.17716000       0.63375000
   136  C          0.49944000       0.82284000       0.36625000
   137  H          0.49980000       0.11200000       0.57730000
   138  H          0.50020000       0.88800000       0.42270000
   139  H          0.48860000       0.30360000       0.58550000
   140  H          0.51140000       0.69640000       0.41450000
