data_DARGAH01
_symmetry_space_group_name_H-M    'P1'
_symmetry_Int_Tables_number       1
loop_
_symmetry_equiv_pos_site_id
_symmetry_equiv_pos_as_xyz
1 x,y,z
_cell_length_a                   6.2862514
_cell_length_b                   13.47593
_cell_length_c                   19.87765
_cell_angle_alpha                90.0
_cell_angle_beta                 94.8512
_cell_angle_gamma                90.0
loop_
_atom_site_label
_atom_site_type_symbol
_atom_site_fract_x
_atom_site_fract_y
_atom_site_fract_z
     1  S          0.10872700       0.16755300       0.13322200
     2  S          0.89127300       0.66755300       0.36677800
     3  S          0.89127300       0.83244700       0.86677800
     4  S          0.10872700       0.33244700       0.63322200
     5  O          0.24142000       0.09522110       0.17073700
     6  O          0.75858000       0.59522110       0.32926300
     7  O          0.75858000       0.90477890       0.82926300
     8  O          0.24142000       0.40477890       0.67073700
     9  O          0.88068000       0.15291110       0.13798700
    10  O          0.11932000       0.65291110       0.36201300
    11  O          0.11932000       0.84708890       0.86201300
    12  O          0.88068000       0.34708890       0.63798700
    13  N          0.17823000       0.16464120       0.05891800
    14  N          0.82177000       0.66464120       0.44108200
    15  N          0.82177000       0.83535880       0.94108200
    16  N          0.17823000       0.33535880       0.55891800
    17  H          0.26720000       0.12010000       0.04820000
    18  H          0.73280000       0.62010000       0.45180000
    19  H          0.73280000       0.87990000       0.95180000
    20  H          0.26720000       0.37990000       0.54820000
    21  N          0.20903000       0.23277140       0.95532100
    22  N          0.79097000       0.73277140       0.54467900
    23  N          0.79097000       0.76722860       0.04467900
    24  N          0.20903000       0.26722860       0.45532100
    25  N          0.93197000       0.28824150       0.02157900
    26  N          0.06803000       0.78824150       0.47842100
    27  N          0.06803000       0.71175850       0.97842100
    28  N          0.93197000       0.21175850       0.52157900
    29  N          0.33374000       0.56298150       0.24933110
    30  N          0.66626000       0.06298150       0.25066890
    31  N          0.66626000       0.43701850       0.75066890
    32  N          0.33374000       0.93701850       0.74933110
    33  H          0.47050000       0.57420000       0.25971400
    34  H          0.52950000       0.07420000       0.24028600
    35  H          0.52950000       0.42580000       0.74028600
    36  H          0.47050000       0.92580000       0.75971400
    37  H          0.24350000       0.58720000       0.27631500
    38  H          0.75650000       0.08720000       0.22368500
    39  H          0.75650000       0.41280000       0.72368500
    40  H          0.24350000       0.91280000       0.77631500
    41  C          0.28123000       0.46989150       0.22379100
    42  C          0.71877000       0.96989150       0.27620900
    43  C          0.71877000       0.53010850       0.77620900
    44  C          0.28123000       0.03010850       0.72379100
    45  C          0.07523000       0.43323170       0.22453120
    46  C          0.92477000       0.93323170       0.27546880
    47  C          0.92477000       0.56676830       0.77546880
    48  C          0.07523000       0.06676830       0.72453120
    49  H          0.97270000       0.47040000       0.24430000
    50  H          0.02730000       0.97040000       0.25570000
    51  H          0.02730000       0.52960000       0.75570000
    52  H          0.97270000       0.02960000       0.74430000
    53  C          0.02043000       0.34212160       0.19619120
    54  C         -0.02043000       0.84212160       0.30380880
    55  C         -0.02043000       0.65787840       0.80380880
    56  C          0.02043000       0.15787840       0.69619120
    57  H          0.88120000       0.31890000       0.19660000
    58  H          0.11880000       0.81890000       0.30340000
    59  H          0.11880000       0.68110000       0.80340000
    60  H          0.88120000       0.18110000       0.69660000
    61  C          0.17173000       0.28540140       0.16724900
    62  C          0.82827000       0.78540140       0.33275100
    63  C          0.82827000       0.71459860       0.83275100
    64  C          0.17173000       0.21459860       0.66724900
    65  C          0.37793000       0.32123170       0.16638120
    66  C          0.62207000       0.82123170       0.33361880
    67  C          0.62207000       0.67876830       0.83361880
    68  C          0.37793000       0.17876830       0.66638120
    69  H          0.48060000       0.28350000       0.14700000
    70  H          0.51940000       0.78350000       0.35300000
    71  H          0.51940000       0.71650000       0.85300000
    72  H          0.48060000       0.21650000       0.64700000
    73  C          0.43153000       0.41228170       0.19402120
    74  C          0.56847000       0.91228170       0.30597880
    75  C          0.56847000       0.58771830       0.80597880
    76  C          0.43153000       0.08771830       0.69402120
    77  H          0.57020000       0.43580000       0.19280000
    78  H          0.42980000       0.93580000       0.30720000
    79  H          0.42980000       0.56420000       0.80720000
    80  H          0.57020000       0.06420000       0.69280000
    81  C          0.09983000       0.23166140       0.01074900
    82  C          0.90017000       0.73166140       0.48925100
    83  C          0.90017000       0.76833860       0.98925100
    84  C          0.09983000       0.26833860       0.51074900
    85  C          0.14175000       0.29692000       0.90688880
    86  C          0.85825000       0.79692000       0.59311120
    87  C          0.85825000       0.70308000       0.09311120
    88  C          0.14175000       0.20308000       0.40688880
    89  C          0.26407000       0.29773000       0.84476850
    90  C          0.73593000       0.79773000       0.65523150
    91  C          0.73593000       0.70227000       0.15523150
    92  C          0.26407000       0.20227000       0.34476850
    93  H          0.40430000       0.32410000       0.85600000
    94  H          0.59570000       0.82410000       0.64400000
    95  H          0.59570000       0.67590000       0.14400000
    96  H          0.40430000       0.17590000       0.35600000
    97  H          0.19010000       0.33820000       0.81060000
    98  H          0.80990000       0.83820000       0.68940000
    99  H          0.80990000       0.66180000       0.18940000
   100  H          0.19010000       0.16180000       0.31060000
   101  H          0.27540000       0.23120000       0.82810000
   102  H          0.72460000       0.73120000       0.67190000
   103  H          0.72460000       0.76880000       0.17190000
   104  H          0.27540000       0.26880000       0.32810000
   105  C          0.97144000       0.35902000       0.91461850
   106  C          0.02856000       0.85902000       0.58538150
   107  C          0.02856000       0.64098000       0.08538150
   108  C          0.97144000       0.14098000       0.41461850
   109  H          0.92650000       0.40410000       0.88100000
   110  H          0.07350000       0.90410000       0.61900000
   111  H          0.07350000       0.59590000       0.11900000
   112  H          0.92650000       0.09590000       0.38100000
   113  C          0.86965000       0.35312000       0.97284860
   114  C          0.13035000       0.85312000       0.52715140
   115  C          0.13035000       0.64688000       0.02715140
   116  C          0.86965000       0.14688000       0.47284860
   117  C          0.68604000       0.41973000       0.98698000
   118  C          0.31396000       0.91973000       0.51302000
   119  C          0.31396000       0.58027000       0.01302000
   120  C          0.68604000       0.08027000       0.48698000
   121  H          0.56270000       0.38000000      -0.00660000
   122  H          0.43730000       0.88000000       0.50660000
   123  H          0.43730000       0.62000000       0.00660000
   124  H          0.56270000       0.12000000       0.49340000
   125  H          0.65490000       0.46370000       0.94950000
   126  H          0.34510000       0.96370000       0.55050000
   127  H          0.34510000       0.53630000       0.05050000
   128  H          0.65490000       0.03630000       0.44950000
   129  H          0.72390000       0.45770000       0.02710000
   130  H          0.27610000       0.95770000       0.47290000
   131  H          0.27610000       0.54230000       0.97290000
   132  H          0.72390000       0.04230000       0.52710000
   133  N          0.56833000       0.08320150       0.04008100
   134  N          0.43167000       0.58320150       0.45991900
   135  N          0.43167000       0.91679850       0.95991900
   136  N          0.56833000       0.41679850       0.54008100
   137  H          0.65740000       0.11520000       0.06251400
   138  H          0.34260000       0.61520000       0.43748600
   139  H          0.34260000       0.88480000       0.93748600
   140  H          0.65740000       0.38480000       0.56251400
   141  C          0.55724000       0.98272810       0.07048120
   142  C          0.44276000       0.48272810       0.42951880
   143  C          0.44276000       0.01727190       0.92951880
   144  C          0.55724000       0.51727190       0.57048120
   145  H          0.52510000       0.98860000       0.11720000
   146  H          0.47490000       0.48860000       0.38280000
   147  H          0.47490000       0.01140000       0.88280000
   148  H          0.52510000       0.51140000       0.61720000
   149  H          0.69430000       0.94990000       0.06960000
   150  H          0.30570000       0.44990000       0.43040000
   151  H          0.30570000       0.05010000       0.93040000
   152  H          0.69430000       0.55010000       0.56960000
   153  C          0.61184000       0.07784190       0.96788870
   154  C          0.38816000       0.57784190       0.53211130
   155  C          0.38816000       0.92215810       0.03211130
   156  C          0.61184000       0.42215810       0.46788870
   157  H          0.75060000       0.04790000       0.96400000
   158  H          0.24940000       0.54790000       0.53600000
   159  H          0.24940000       0.95210000       0.03600000
   160  H          0.75060000       0.45210000       0.46400000
   161  H          0.61370000       0.14420000       0.94910000
   162  H          0.38630000       0.64420000       0.55090000
   163  H          0.38630000       0.85580000       0.05090000
   164  H          0.61370000       0.35580000       0.44910000
