data_DATCIM
_symmetry_space_group_name_H-M    'P1'
_symmetry_Int_Tables_number       1
loop_
_symmetry_equiv_pos_site_id
_symmetry_equiv_pos_as_xyz
1 x,y,z
_cell_length_a                   15.79385
_cell_length_b                   9.68192
_cell_length_c                   18.29025
_cell_angle_alpha                90.0
_cell_angle_beta                 107.5773
_cell_angle_gamma                90.0
loop_
_atom_site_label
_atom_site_type_symbol
_atom_site_fract_x
_atom_site_fract_y
_atom_site_fract_z
     1  C          0.15412000       0.12673000       0.48443190
     2  C          0.84588000       0.12673000       0.01556810
     3  C          0.65412000       0.62673000       0.48443190
     4  C          0.34588000       0.62673000       0.01556810
     5  C          0.84588000       0.87327000       0.51556810
     6  C          0.15412000       0.87327000       0.98443190
     7  C          0.34588000       0.37327000       0.51556810
     8  C          0.65412000       0.37327000       0.98443190
     9  C          0.22462000       0.03323000       0.49796180
    10  C          0.77538000       0.03323000       0.00203820
    11  C          0.72462000       0.53323000       0.49796180
    12  C          0.27538000       0.53323000       0.00203820
    13  C          0.77538000       0.96677000       0.50203820
    14  C          0.22462000       0.96677000      -0.00203820
    15  C          0.27538000       0.46677000       0.50203820
    16  C          0.72462000       0.46677000      -0.00203820
    17  C          0.26952000       0.00563000       0.44558190
    18  C          0.73048000       0.00563000       0.05441810
    19  C          0.76952000       0.50563000       0.44558190
    20  C          0.23048000       0.50563000       0.05441810
    21  C          0.73048000      -0.00563000       0.55441810
    22  C          0.26952000      -0.00563000       0.94558190
    23  C          0.23048000       0.49437000       0.55441810
    24  C          0.76952000       0.49437000       0.94558190
    25  C          0.24202000       0.07483000       0.37668190
    26  C          0.75798000       0.07483000       0.12331810
    27  C          0.74202000       0.57483000       0.37668190
    28  C          0.25798000       0.57483000       0.12331810
    29  C          0.75798000       0.92517000       0.62331810
    30  C          0.24202000       0.92517000       0.87668190
    31  C          0.25798000       0.42517000       0.62331810
    32  C          0.74202000       0.42517000       0.87668190
    33  C          0.17442000       0.17173000       0.35936190
    34  C          0.82558000       0.17173000       0.14063810
    35  C          0.67442000       0.67173000       0.35936190
    36  C          0.32558000       0.67173000       0.14063810
    37  C          0.82558000       0.82827000       0.64063810
    38  C          0.17442000       0.82827000       0.85936190
    39  C          0.32558000       0.32827000       0.64063810
    40  C          0.67442000       0.32827000       0.85936190
    41  C          0.13192000       0.19483000       0.41442000
    42  C          0.86808000       0.19483000       0.08558000
    43  C          0.63192000       0.69483000       0.41442000
    44  C          0.36808000       0.69483000       0.08558000
    45  C          0.86808000       0.80517000       0.58558000
    46  C          0.13192000       0.80517000       0.91442000
    47  C          0.36808000       0.30517000       0.58558000
    48  C          0.63192000       0.30517000       0.91442000
    49  F          0.25061130       0.96868000       0.56647110
    50  F          0.74938870       0.96868000       0.93352890
    51  F          0.75061130       0.46868000       0.56647110
    52  F          0.24938870       0.46868000       0.93352890
    53  F          0.74938870       0.03132000       0.43352890
    54  F          0.25061130       0.03132000       0.06647110
    55  F          0.24938870       0.53132000       0.43352890
    56  F          0.75061130       0.53132000       0.06647110
    57  F          0.28392130       0.04895180       0.32372110
    58  F          0.71607870       0.04895180       0.17627890
    59  F          0.78392130       0.54895180       0.32372110
    60  F          0.21607870       0.54895180       0.17627890
    61  F          0.71607870       0.95104820       0.67627890
    62  F          0.28392130       0.95104820       0.82372110
    63  F          0.21607870       0.45104820       0.67627890
    64  F          0.78392130       0.45104820       0.82372110
    65  F          0.06628140       0.28972000       0.39974120
    66  F          0.93371860       0.28972000       0.10025880
    67  F          0.56628140       0.78972000       0.39974120
    68  F          0.43371860       0.78972000       0.10025880
    69  F          0.93371860       0.71028000       0.60025880
    70  F          0.06628140       0.71028000       0.89974120
    71  F          0.43371860       0.21028000       0.60025880
    72  F          0.56628140       0.21028000       0.89974120
    73  I          0.09023115       0.16844200       0.56808613
    74  I          0.90976885       0.16844200       0.93191387
    75  I          0.59023115       0.66844200       0.56808613
    76  I          0.40976885       0.66844200       0.93191387
    77  I          0.90976885       0.83155800       0.43191387
    78  I          0.09023115       0.83155800       0.06808613
    79  I          0.40976885       0.33155800       0.43191387
    80  I          0.59023115       0.33155800       0.06808613
    81  I          0.37673317       0.86933800       0.46977614
    82  I          0.62326683       0.86933800       0.03022386
    83  I          0.87673317       0.36933800       0.46977614
    84  I          0.12326683       0.36933800       0.03022386
    85  I          0.62326683       0.13066200       0.53022386
    86  I          0.37673317       0.13066200       0.96977614
    87  I          0.12326683       0.63066200       0.53022386
    88  I          0.87673317       0.63066200       0.96977614
    89  I          0.13955218       0.27528300       0.25474415
    90  I          0.86044782       0.27528300       0.24525585
    91  I          0.63955218       0.77528300       0.25474415
    92  I          0.36044782       0.77528300       0.24525585
    93  I          0.86044782       0.72471700       0.74525585
    94  I          0.13955218       0.72471700       0.75474415
    95  I          0.36044782       0.22471700       0.74525585
    96  I          0.63955218       0.22471700       0.75474415
    97  C          0.09063000       0.15166000       0.75202000
    98  C          0.90937000       0.15166000       0.74798000
    99  C          0.59063000       0.65166000       0.75202000
   100  C          0.40937000       0.65166000       0.74798000
   101  C          0.90937000       0.84834000       0.24798000
   102  C          0.09063000       0.84834000       0.25202000
   103  C          0.40937000       0.34834000       0.24798000
   104  C          0.59063000       0.34834000       0.25202000
   105  H          0.14710000       0.20370000       0.76360000
   106  H          0.85290000       0.20370000       0.73640000
   107  H          0.64710000       0.70370000       0.76360000
   108  H          0.35290000       0.70370000       0.73640000
   109  H          0.85290000       0.79630000       0.23640000
   110  H          0.14710000       0.79630000       0.26360000
   111  H          0.35290000       0.29630000       0.23640000
   112  H          0.64710000       0.29630000       0.26360000
   113  H          0.10160000       0.05670000       0.73680000
   114  H          0.89840000       0.05670000       0.76320000
   115  H          0.60160000       0.55670000       0.73680000
   116  H          0.39840000       0.55670000       0.76320000
   117  H          0.89840000       0.94330000       0.26320000
   118  H          0.10160000       0.94330000       0.23680000
   119  H          0.39840000       0.44330000       0.26320000
   120  H          0.60160000       0.44330000       0.23680000
   121  C          0.05943000       0.14565000       0.82462000
   122  C          0.94057000       0.14565000       0.67538000
   123  C          0.55943000       0.64565000       0.82462000
   124  C          0.44057000       0.64565000       0.67538000
   125  C          0.94057000       0.85435000       0.17538000
   126  C          0.05943000       0.85435000       0.32462000
   127  C          0.44057000       0.35435000       0.17538000
   128  C          0.55943000       0.35435000       0.32462000
   129  H          0.05210000       0.04810000       0.83780000
   130  H          0.94790000       0.04810000       0.66220000
   131  H          0.55210000       0.54810000       0.83780000
   132  H          0.44790000       0.54810000       0.66220000
   133  H          0.94790000       0.95190000       0.16220000
   134  H          0.05210000       0.95190000       0.33780000
   135  H          0.44790000       0.45190000       0.16220000
   136  H          0.55210000       0.45190000       0.33780000
   137  H          0.10490000       0.18840000       0.86830000
   138  H          0.89510000       0.18840000       0.63170000
   139  H          0.60490000       0.68840000       0.86830000
   140  H          0.39510000       0.68840000       0.63170000
   141  H          0.89510000       0.81160000       0.13170000
   142  H          0.10490000       0.81160000       0.36830000
   143  H          0.39510000       0.31160000       0.13170000
   144  H          0.60490000       0.31160000       0.36830000
   145  C          0.01264000       0.35804000       0.71213000
   146  C          0.98736000       0.35804000       0.78787000
   147  C          0.51264000       0.85804000       0.71213000
   148  C          0.48736000       0.85804000       0.78787000
   149  C          0.98736000       0.64196000       0.28787000
   150  C          0.01264000       0.64196000       0.21213000
   151  C          0.48736000       0.14196000       0.28787000
   152  C          0.51264000       0.14196000       0.21213000
   153  H          0.96520000       0.40420000       0.67120000
   154  H          0.03480000       0.40420000       0.82880000
   155  H          0.46520000       0.90420000       0.67120000
   156  H          0.53480000       0.90420000       0.82880000
   157  H          0.03480000       0.59580000       0.32880000
   158  H          0.96520000       0.59580000       0.17120000
   159  H          0.53480000       0.09580000       0.32880000
   160  H          0.46520000       0.09580000       0.17120000
   161  H          0.06840000       0.41030000       0.71950000
   162  H          0.93160000       0.41030000       0.78050000
   163  H          0.56840000       0.91030000       0.71950000
   164  H          0.43160000       0.91030000       0.78050000
   165  H          0.93160000       0.58970000       0.28050000
   166  H          0.06840000       0.58970000       0.21950000
   167  H          0.43160000       0.08970000       0.28050000
   168  H          0.56840000       0.08970000       0.21950000
   169  N          0.02404190       0.21803000       0.68892160
   170  N          0.97595810       0.21803000       0.81107840
   171  N          0.52404190       0.71803000       0.68892160
   172  N          0.47595810       0.71803000       0.81107840
   173  N          0.97595810       0.78197000       0.31107840
   174  N          0.02404190       0.78197000       0.18892160
   175  N          0.47595810       0.28197000       0.31107840
   176  N          0.52404190       0.28197000       0.18892160
