data_DATQEV
_symmetry_space_group_name_H-M    'P1'
_symmetry_Int_Tables_number       1
loop_
_symmetry_equiv_pos_site_id
_symmetry_equiv_pos_as_xyz
1 x,y,z
_cell_length_a                   14.9233
_cell_length_b                   14.3693
_cell_length_c                   9.610519
_cell_angle_alpha                90.0
_cell_angle_beta                 93.773
_cell_angle_gamma                90.0
loop_
_atom_site_label
_atom_site_type_symbol
_atom_site_fract_x
_atom_site_fract_y
_atom_site_fract_z
     1  Cl         0.48679800       0.64238100       0.52093160
     2  Cl         0.51320200       0.14238100       0.97906840
     3  Cl         0.51320200       0.35761900       0.47906840
     4  Cl         0.48679800       0.85761900       0.02093160
     5  Cl         0.58371110       0.51187120       0.80653830
     6  Cl         0.41628890       0.01187120       0.69346170
     7  Cl         0.41628890       0.48812880       0.19346170
     8  Cl         0.58371110       0.98812880       0.30653830
     9  S          0.79648700       0.54278900       0.28080140
    10  S          0.20351300       0.04278900       0.21919860
    11  S          0.20351300       0.45721100       0.71919860
    12  S          0.79648700       0.95721100       0.78080140
    13  O          0.87662000       0.64962000       0.49854000
    14  O          0.12338000       0.14962000       0.00146000
    15  O          0.12338000       0.35038000       0.50146000
    16  O          0.87662000       0.85038000      -0.00146000
    17  H          0.90080000       0.68180000       0.56060000
    18  H          0.09920000       0.18180000       0.93940000
    19  H          0.09920000       0.31820000       0.43940000
    20  H          0.90080000       0.81820000       0.06060000
    21  O          0.70932000       0.35472000       0.34514000
    22  O          0.29068000       0.85472000       0.15486000
    23  O          0.29068000       0.64528000       0.65486000
    24  O          0.70932000       0.14528000       0.84514000
    25  H          0.74500000       0.38850000       0.38960000
    26  H          0.25500000       0.88850000       0.11040000
    27  H          0.25500000       0.61150000       0.61040000
    28  H          0.74500000       0.11150000       0.88960000
    29  C          0.60243000       0.64843000       0.50996000
    30  C          0.39757000       0.14843000      -0.00996000
    31  C          0.39757000       0.35157000       0.49004000
    32  C          0.60243000       0.85157000       0.00996000
    33  C          0.65124000       0.70294000       0.60686000
    34  C          0.34876000       0.20294000       0.89314000
    35  C          0.34876000       0.29706000       0.39314000
    36  C          0.65124000       0.79706000       0.10686000
    37  H          0.62240000       0.73730000       0.67260000
    38  H          0.37760000       0.23730000       0.82740000
    39  H          0.37760000       0.26270000       0.32740000
    40  H          0.62240000       0.76270000       0.17260000
    41  C          0.74354000       0.70494000       0.60346000
    42  C          0.25646000       0.20494000       0.89654000
    43  C          0.25646000       0.29506000       0.39654000
    44  C          0.74354000       0.79506000       0.10346000
    45  H          0.77760000       0.74070000       0.66780000
    46  H          0.22240000       0.24070000       0.83220000
    47  H          0.22240000       0.25930000       0.33220000
    48  H          0.77760000       0.75930000       0.16780000
    49  C          0.78513000       0.65393000       0.50496000
    50  C          0.21487000       0.15393000      -0.00496000
    51  C          0.21487000       0.34607000       0.49504000
    52  C          0.78513000       0.84607000       0.00496000
    53  C          0.73433000       0.60213000       0.40535000
    54  C          0.26567000       0.10213000       0.09465000
    55  C          0.26567000       0.39787000       0.59465000
    56  C          0.73433000       0.89787000       0.90535000
    57  C          0.64223000       0.60133000       0.40895000
    58  C          0.35777000       0.10133000       0.09105000
    59  C          0.35777000       0.39867000       0.59105000
    60  C          0.64223000       0.89867000       0.90895000
    61  H          0.60730000       0.56830000       0.34190000
    62  H          0.39270000       0.06830000       0.15810000
    63  H          0.39270000       0.43170000       0.65810000
    64  H          0.60730000       0.93170000       0.84190000
    65  C          0.71233000       0.48183000       0.18045000
    66  C          0.28767000       0.98183000       0.31955000
    67  C          0.28767000       0.51817000       0.81955000
    68  C          0.71233000       0.01817000       0.68045000
    69  C          0.68053000       0.51813000       0.05135000
    70  C          0.31947000       0.01813000       0.44865000
    71  C          0.31947000       0.48187000       0.94865000
    72  C          0.68053000       0.98187000       0.55135000
    73  H          0.69970000       0.57630000       0.02310000
    74  H          0.30030000       0.07630000       0.47690000
    75  H          0.30030000       0.42370000       0.97690000
    76  H          0.69970000       0.92370000       0.52310000
    77  C          0.62153000       0.46814000       0.96704000
    78  C          0.37847000       0.96814000       0.53296000
    79  C          0.37847000       0.53186000       0.03296000
    80  C          0.62153000       0.03186000       0.46704000
    81  C          0.59183000       0.38314000       0.00936000
    82  C          0.40817000       0.88314000       0.49064000
    83  C          0.40817000       0.61686000      -0.00936000
    84  C          0.59183000       0.11686000       0.50936000
    85  H          0.55110000       0.34960000       0.95140000
    86  H          0.44890000       0.84960000       0.54860000
    87  H          0.44890000       0.65040000       0.04860000
    88  H          0.55110000       0.15040000       0.45140000
    89  C          0.62113000       0.34723000       0.13476000
    90  C          0.37887000       0.84723000       0.36524000
    91  C          0.37887000       0.65277000       0.86524000
    92  C          0.62113000       0.15277000       0.63476000
    93  H          0.60020000       0.28950000       0.16230000
    94  H          0.39980000       0.78950000       0.33770000
    95  H          0.39980000       0.71050000       0.83770000
    96  H          0.60020000       0.21050000       0.66230000
    97  C          0.68263000       0.39643000       0.22315000
    98  C          0.31737000       0.89643000       0.27685000
    99  C          0.31737000       0.60357000       0.77685000
   100  C          0.68263000       0.10357000       0.72315000
   101  N          0.81553000       0.40173000       0.57305000
   102  N          0.18447000       0.90173000       0.92695000
   103  N          0.18447000       0.59827000       0.42695000
   104  N          0.81553000       0.09827000       0.07305000
   105  N          0.03993000       0.34313000       0.24135000
   106  N          0.96007000       0.84313000       0.25865000
   107  N          0.96007000       0.65687000       0.75865000
   108  N          0.03993000       0.15687000       0.74135000
   109  C          0.90113000       0.41994000       0.59586000
   110  C          0.09887000       0.91994000       0.90414000
   111  C          0.09887000       0.58006000       0.40414000
   112  C          0.90113000       0.08006000       0.09586000
   113  H          0.93260000       0.44070000       0.52150000
   114  H          0.06740000       0.94070000       0.97850000
   115  H          0.06740000       0.55930000       0.47850000
   116  H          0.93260000       0.05930000       0.02150000
   117  C          0.94683000       0.40993000       0.72376000
   118  C          0.05317000       0.90993000       0.77624000
   119  C          0.05317000       0.59007000       0.27624000
   120  C          0.94683000       0.09007000       0.22376000
   121  H          0.00780000       0.42330000       0.73320000
   122  H         -0.00780000       0.92330000       0.76680000
   123  H         -0.00780000       0.57670000       0.26680000
   124  H          0.00780000       0.07670000       0.23320000
   125  C          0.90343000       0.38023000       0.83846000
   126  C          0.09657000       0.88023000       0.66154000
   127  C          0.09657000       0.61977000       0.16154000
   128  C          0.90343000       0.11977000       0.33846000
   129  C          0.81263000       0.36164000       0.81506000
   130  C          0.18737000       0.86164000       0.68494000
   131  C          0.18737000       0.63836000       0.18494000
   132  C          0.81263000       0.13836000       0.31506000
   133  H          0.77900000       0.34160000       0.88740000
   134  H          0.22100000       0.84160000       0.61260000
   135  H          0.22100000       0.65840000       0.11260000
   136  H          0.77900000       0.15840000       0.38740000
   137  C          0.77293000       0.37335000       0.68217000
   138  C          0.22707000       0.87335000       0.81783000
   139  C          0.22707000       0.62665000       0.31783000
   140  C          0.77293000       0.12665000       0.18217000
   141  H          0.71190000       0.36040000       0.66830000
   142  H          0.28810000       0.86040000       0.83170000
   143  H          0.28810000       0.63960000       0.33170000
   144  H          0.71190000       0.13960000       0.16830000
   145  C          0.95003000       0.36743000       0.97785000
   146  C          0.04997000       0.86743000       0.52215000
   147  C          0.04997000       0.63257000       0.02215000
   148  C          0.95003000       0.13257000       0.47785000
   149  C          0.04243000       0.37304000      -0.00264000
   150  C          0.95757000       0.87304000       0.50264000
   151  C          0.95757000       0.62696000       0.00264000
   152  C          0.04243000       0.12696000       0.49736000
   153  H          0.07660000       0.38490000       0.92170000
   154  H          0.92340000       0.88490000       0.57830000
   155  H          0.92340000       0.61510000       0.07830000
   156  H          0.07660000       0.11510000       0.42170000
   157  C          0.08414000       0.36104000       0.12757000
   158  C          0.91586000       0.86104000       0.37243000
   159  C          0.91586000       0.63896000       0.87243000
   160  C          0.08414000       0.13896000       0.62757000
   161  H          0.14630000       0.36570000       0.13730000
   162  H          0.85370000       0.86570000       0.36270000
   163  H          0.85370000       0.63430000       0.86270000
   164  H          0.14630000       0.13430000       0.63730000
   165  C          0.95103000       0.33603000       0.22076000
   166  C          0.04897000       0.83603000       0.27924000
   167  C          0.04897000       0.66397000       0.77924000
   168  C          0.95103000       0.16397000       0.72076000
   169  H          0.91820000       0.32190000       0.29700000
   170  H          0.08180000       0.82190000       0.20300000
   171  H          0.08180000       0.67810000       0.70300000
   172  H          0.91820000       0.17810000       0.79700000
   173  C          0.90513000       0.34833000       0.09406000
   174  C          0.09487000       0.84833000       0.40594000
   175  C          0.09487000       0.65167000       0.90594000
   176  C          0.90513000       0.15167000       0.59406000
   177  H          0.84280000       0.34360000       0.08690000
   178  H          0.15720000       0.84360000       0.41310000
   179  H          0.15720000       0.65640000       0.91310000
   180  H          0.84280000       0.15640000       0.58690000
