data_DAVQID
_symmetry_space_group_name_H-M    'P1'
_symmetry_Int_Tables_number       1
loop_
_symmetry_equiv_pos_site_id
_symmetry_equiv_pos_as_xyz
1 x,y,z
_cell_length_a                   7.0892
_cell_length_b                   10.6382
_cell_length_c                   11.9033
_cell_angle_alpha                90.0
_cell_angle_beta                 93.0288
_cell_angle_gamma                90.0
loop_
_atom_site_label
_atom_site_type_symbol
_atom_site_fract_x
_atom_site_fract_y
_atom_site_fract_z
     1  I          0.00496300       0.71908200       0.44739819
     2  I          0.49503700       0.21908200       0.05260181
     3  I         -0.00496300       0.28091800       0.55260181
     4  I          0.50496300       0.78091800       0.94739819
     5  I          0.64767300       0.91576019       0.48629619
     6  I          0.85232700       0.41576019       0.01370381
     7  I          0.35232700       0.08423981       0.51370381
     8  I          0.14767300       0.58423981       0.98629619
     9  N          0.49594000       0.49883000       0.33712000
    10  N          0.00406000      -0.00117000       0.16288000
    11  N          0.50406000       0.50117000       0.66288000
    12  N         -0.00406000       0.00117000       0.83712000
    13  C          0.50424000       0.55153000       0.45593000
    14  C         -0.00424000       0.05153000       0.04407000
    15  C          0.49576000       0.44847000       0.54407000
    16  C          0.00424000       0.94847000       0.95593000
    17  H          0.39710000       0.61000000       0.46390000
    18  H          0.10290000       0.11000000       0.03610000
    19  H          0.60290000       0.39000000       0.53610000
    20  H          0.89710000       0.89000000       0.96390000
    21  H          0.62270000       0.59980000       0.46900000
    22  H          0.87730000       0.09980000       0.03100000
    23  H          0.37730000       0.40020000       0.53100000
    24  H          0.12270000       0.90020000       0.96900000
    25  C          0.51416000       0.60814000       0.25833000
    26  C         -0.01416000       0.10814000       0.24167000
    27  C          0.48584000       0.39186000       0.74167000
    28  C          0.01416000       0.89186000       0.75833000
    29  H          0.50970000       0.57760000       0.18050000
    30  H         -0.00970000       0.07760000       0.31950000
    31  H          0.49030000       0.42240000       0.81950000
    32  H          0.00970000       0.92240000       0.68050000
    33  H          0.63460000       0.65100000       0.27530000
    34  H          0.86540000       0.15100000       0.22470000
    35  H          0.36540000       0.34900000       0.72470000
    36  H          0.13460000       0.84900000       0.77530000
    37  H          0.40980000       0.66710000       0.26770000
    38  H          0.09020000       0.16710000       0.23230000
    39  H          0.59020000       0.33290000       0.73230000
    40  H          0.90980000       0.83290000       0.76770000
    41  C          0.65905000       0.41014000       0.32253000
    42  C          0.84095000       0.91014000       0.17747000
    43  C          0.34095000       0.58986000       0.67747000
    44  C          0.15905000       0.08986000       0.82253000
    45  H          0.64210000       0.33440000       0.36780000
    46  H          0.85790000       0.83440000       0.13220000
    47  H          0.35790000       0.66560000       0.63220000
    48  H          0.14210000       0.16560000       0.86780000
    49  H          0.77750000       0.45160000       0.34710000
    50  H          0.72250000       0.95160000       0.15290000
    51  H          0.22250000       0.54840000       0.65290000
    52  H          0.27750000       0.04840000       0.84710000
    53  H          0.66340000       0.38670000       0.24300000
    54  H          0.83660000       0.88670000       0.25700000
    55  H          0.33660000       0.61330000       0.75700000
    56  H          0.16340000       0.11330000       0.74300000
    57  C          0.31185000       0.43383000       0.30873000
    58  C          0.18815000       0.93383000       0.19127000
    59  C          0.68815000       0.56617000       0.69127000
    60  C          0.81185000       0.06617000       0.80873000
    61  H          0.20720000       0.49120000       0.32210000
    62  H          0.29280000      -0.00880000       0.17790000
    63  H          0.79280000       0.50880000       0.67790000
    64  H          0.70720000       0.00880000       0.82210000
    65  H          0.30180000       0.35900000       0.35610000
    66  H          0.19820000       0.85900000       0.14390000
    67  H          0.69820000       0.64100000       0.64390000
    68  H          0.80180000       0.14100000       0.85610000
    69  H          0.30620000       0.40880000       0.22940000
    70  H          0.19380000       0.90880000       0.27060000
    71  H          0.69380000       0.59120000       0.77060000
    72  H          0.80620000       0.09120000       0.72940000
