data_DAVTAZ
_symmetry_space_group_name_H-M    'P1'
_symmetry_Int_Tables_number       1
loop_
_symmetry_equiv_pos_site_id
_symmetry_equiv_pos_as_xyz
1 x,y,z
_cell_length_a                   9.51596
_cell_length_b                   10.37895
_cell_length_c                   22.013617
_cell_angle_alpha                100.3245
_cell_angle_beta                 92.7385
_cell_angle_gamma                98.5754
loop_
_atom_site_label
_atom_site_type_symbol
_atom_site_fract_x
_atom_site_fract_y
_atom_site_fract_z
     1  I          0.81797600       0.46200600       0.07346300
     2  I          0.18202400       0.53799400       0.92653700
     3  I          0.72476400       0.05688600       0.07020300
     4  I          0.27523600       0.94311400       0.92979700
     5  C          0.47408000       0.32129000       0.91076000
     6  C          0.52592000       0.67871000       0.08924000
     7  H          0.37734000       0.27918700       0.90608800
     8  H          0.62266000       0.72081300       0.09391200
     9  Cl         0.95943000       0.51453000       0.17559120
    10  Cl         0.04057000       0.48547000       0.82440880
    11  Cl         0.63617000       0.00373000       0.16787130
    12  Cl         0.36383000      -0.00373000       0.83212870
    13  C          0.42569000       0.29629000       0.06745000
    14  C          0.57431000       0.70371000       0.93255000
    15  C          0.93911000       0.15279000       0.96825000
    16  C          0.06089000       0.84721000       0.03175000
    17  C          0.55009000       0.35158000       0.96906000
    18  C          0.44991000       0.64842000       0.03094000
    19  F          0.47196000       0.28716000       0.28313000
    20  F          0.52804000       0.71284000       0.71687000
    21  F          0.58585000       0.33506000       0.17873000
    22  F          0.41415000       0.66494000       0.82127000
    23  F          0.18416000       0.20316000       0.28203000
    24  F          0.81584000       0.79684000       0.71797000
    25  F          0.01785000       0.16656000       0.17843000
    26  F         -0.01785000       0.83344000       0.82157000
    27  C         -0.01681000       0.17251000       0.90985000
    28  C          0.01681000       0.82749000       0.09015000
    29  H          0.07988100       0.20535000       0.90506200
    30  H          0.92011900       0.79465000       0.09493800
    31  N          0.80112000       0.10437000       0.97556000
    32  N          0.19888000       0.89563000       0.02444000
    33  N          0.68817000       0.41057000       0.97546000
    34  N          0.31183000       0.58943000       0.02454000
    35  C          0.36049000       0.27109000       0.12214000
    36  C          0.63951000       0.72891000       0.87786000
    37  C          0.75128000       0.44178000       0.92605000
    38  C          0.24872000       0.55822000       0.07395000
    39  H          0.84703200       0.48612600       0.93157200
    40  H          0.15296800       0.51387400       0.06842800
    41  C          0.21139000       0.23028000       0.12174000
    42  C          0.78861000       0.76972000       0.87826000
    43  C          0.54341000       0.35409000       0.85955000
    44  C          0.45659000       0.64591000       0.14045000
    45  H          0.49399700       0.33605000       0.81970900
    46  H          0.50600300       0.66395000       0.18029100
    47  C          0.68401000       0.41269000       0.86785000
    48  C          0.31599000       0.58731000       0.13215000
    49  H          0.73392800       0.43261700       0.83355400
    50  H          0.26607200       0.56738300       0.16644600
    51  C          0.24131000       0.22689000       0.23085000
    52  C          0.75869000       0.77311000       0.76915000
    53  C          0.15739000       0.21019000       0.17694000
    54  C          0.84261000       0.78981000       0.82306000
    55  C          0.44379000       0.29109000       0.17665000
    56  C          0.55621000       0.70891000       0.82335000
    57  C          0.03809000       0.18439000       0.02115000
    58  C          0.96191000       0.81561000       0.97885000
    59  C          0.70629000       0.07848000       0.92605000
    60  C          0.29371000       0.92152000       0.07395000
    61  H          0.60989100       0.04522000       0.93115700
    62  H          0.39010900       0.95478000       0.06884300
    63  C          0.48369000       0.32139000       0.02285000
    64  C          0.51631000       0.67861000       0.97715000
    65  C          0.88088900       0.14261000       0.85885000
    66  C          0.11911100       0.85739000       0.14115000
    67  H          0.90721700       0.15329600       0.81883200
    68  H          0.09278300       0.84670400       0.18116800
    69  C          0.38849000       0.26749000       0.23114000
    70  C          0.61151000       0.73251000       0.76886000
    71  C          0.74288900       0.09789000       0.86855000
    72  C          0.25711100       0.90211000       0.13145000
    73  H          0.67169000       0.07984400       0.83509700
    74  H          0.32831000       0.92015600       0.16490300
    75  C          0.11919000       0.20638000       0.06635000
    76  C          0.88081000       0.79362000       0.93365000
    77  I          0.33544700       0.74647700       0.30930300
    78  I          0.66455300       0.25352300       0.69069700
    79  Cl         0.39403000       0.97573000       0.28665140
    80  Cl         0.60597000       0.02427000       0.71334860
    81  Cl         0.28334000       0.51993000       0.34165190
    82  Cl         0.71666000       0.48007000       0.65834810
    83  I          0.69695300       0.00502700       0.43564700
    84  I          0.30304700      -0.00502700       0.56435300
    85  F          0.34147000       0.43897000       0.69846000
    86  F          0.65853000       0.56103000       0.30154000
    87  F          0.23487000       0.24897000       0.76247000
    88  F          0.76513000       0.75103000       0.23753000
    89  F          0.23127000       0.43817000       0.58377000
    90  F          0.76873000       0.56183000       0.41623000
    91  F          0.01437000       0.06407000       0.71087000
    92  F         -0.01437000       0.93593000       0.28913000
    93  C          0.67729000       0.85959000       0.55045000
    94  C          0.32271000       0.14041000       0.44955000
    95  N          0.79631000       0.16359000       0.38416000
    96  N          0.20369000       0.83641000       0.61584000
    97  C          0.00461000       0.15381100       0.62105000
    98  C         -0.00461000       0.84618900       0.37895000
    99  N          0.61561000       0.85082000       0.49296000
   100  N          0.38439000       0.14918000       0.50704000
   101  C          0.00161000       0.25301000       0.52655000
   102  C         -0.00161000       0.74699000       0.47345000
   103  C          0.51538700       0.66849000       0.56385000
   104  C          0.48461300       0.33151000       0.43615000
   105  H          0.48160200       0.60632700       0.58887300
   106  H          0.51839800       0.39367300       0.41112700
   107  C          0.81298800       0.25221200       0.29304000
   108  C          0.18701200       0.74778800       0.70696000
   109  H          0.77851800       0.25015900       0.25165800
   110  H          0.22148200       0.74984100       0.74834200
   111  C          0.62778900       0.76509000       0.58435000
   112  C          0.37221100       0.23491000       0.41565000
   113  H          0.67464200       0.76809400       0.62382700
   114  H          0.32535800       0.23190600       0.37617300
   115  C          0.89008900       0.05061100       0.59425000
   116  C          0.10991100       0.94938900       0.40575000
   117  C          0.05761100       0.25381000       0.58785000
   118  C          0.94238900       0.74619000       0.41215000
   119  C          0.97438800       0.34711200       0.38055000
   120  C          0.02561200       0.65288800       0.61945000
   121  H          0.05291000       0.41065500       0.40039500
   122  H          0.94709000       0.58934500       0.59960500
   123  C          0.23551200       0.34891200       0.67404000
   124  C          0.76448800       0.65108800       0.32596000
   125  C          0.90658900       0.25281100       0.41235000
   126  C          0.09341100       0.74718900       0.58765000
   127  C          0.45078700       0.66258900       0.50534000
   128  C          0.54921300       0.33741100       0.49466000
   129  H          0.37128500       0.59657800       0.48910100
   130  H          0.62871500       0.40342200       0.51089900
   131  C          0.95478900       0.25311000       0.47485000
   132  C          0.04521100       0.74689000       0.52515000
   133  C          0.17291200       0.34391100       0.61424000
   134  C          0.82708800       0.65608900       0.38576000
   135  C          0.92668800       0.34741200       0.32044000
   136  C          0.07331200       0.65258800       0.67956000
   137  H          0.97066100       0.41133100       0.29850000
   138  H          0.02933900       0.58866900       0.70150000
   139  C          0.50578700       0.75568900       0.47165000
   140  C          0.49421300       0.24431100       0.52835000
   141  H          0.46319500       0.75154600       0.43129200
   142  H          0.53680500       0.24845400       0.56870800
   143  C          0.79648900       0.96308900       0.57265000
   144  C          0.20351100       0.03691100       0.42735000
   145  C          0.17731100       0.25221200       0.70645000
   146  C          0.82268900       0.74778800       0.29355000
   147  C          0.06231100       0.15411100       0.67945000
   148  C          0.93768900       0.84588900       0.32055000
   149  C          0.75008900       0.16101200       0.32525000
   150  C          0.24991100       0.83898800       0.67475000
   151  H          0.67303600       0.09525900       0.30585800
   152  H          0.32696400       0.90474100       0.69414200
