data_DAWPUQ
_symmetry_space_group_name_H-M    'P1'
_symmetry_Int_Tables_number       1
loop_
_symmetry_equiv_pos_site_id
_symmetry_equiv_pos_as_xyz
1 x,y,z
_cell_length_a                   5.36924
_cell_length_b                   14.821912
_cell_length_c                   13.899412
_cell_angle_alpha                90.0
_cell_angle_beta                 95.7894
_cell_angle_gamma                90.0
loop_
_atom_site_label
_atom_site_type_symbol
_atom_site_fract_x
_atom_site_fract_y
_atom_site_fract_z
     1  I          0.61714000       0.67164130       0.78743160
     2  I          0.38286000       0.17164130       0.21256840
     3  I          0.86946000       0.45596130       0.74491180
     4  I          0.13054000       0.95596130       0.25508820
     5  N          0.96760000       0.79991700       0.44501900
     6  N          0.03240000       0.29991700       0.55498100
     7  H          0.93350100       0.79282000       0.38139400
     8  H          0.06649900       0.29282000       0.61860600
     9  H          0.13217200       0.80200000       0.45990100
    10  H          0.86782800       0.30200000       0.54009900
    11  H          0.89884400       0.85110500       0.46306700
    12  H          0.10115600       0.35110500       0.53693300
    13  O          0.46340000       0.66321500       0.51051600
    14  O          0.53660000       0.16321500       0.48948400
    15  C          0.59260000       0.73020000       0.49520000
    16  C          0.40740000       0.23020000       0.50480000
    17  O          0.48640000       0.80951300       0.47431600
    18  O          0.51360000       0.30951300       0.52568400
    19  C          0.86160000       0.72220000       0.49620000
    20  C          0.13840000       0.22220000       0.50380000
    21  H          0.89850800       0.66670400       0.46240900
    22  H          0.10149200       0.16670400       0.53759100
    23  C          0.85360000       0.59220000       0.70820000
    24  C          0.14640000       0.09220000       0.29180000
    25  C         -0.00740000       0.71621900       0.60520000
    26  C          0.00740000       0.21621900       0.39480000
    27  H          0.16675300       0.73330300       0.60690300
    28  H          0.83324700       0.23330300       0.39309700
    29  H          0.91064500       0.75750500       0.64619600
    30  H          0.08935500       0.25750500       0.35380400
    31  C         -0.02540000       0.62820000       0.64020000
    32  C          0.02540000       0.12820000       0.35980000
    33  H          0.06580800       0.58590100       0.60834000
    34  H          0.93419200       0.08590100       0.39166000
    35  C          0.18610000       0.24640000       0.82740000
    36  C          0.81390000       0.74640000       0.17260000
    37  H          0.14549100       0.30563400       0.85232000
    38  H          0.85450900       0.80563400       0.14768000
    39  C          0.15811000       0.17540000       0.90230000
    40  C          0.84189000       0.67540000       0.09770000
    41  H          0.28627300       0.18297400       0.95492200
    42  H          0.71372700       0.68297400       0.04507800
    43  H          0.17513100       0.11642800       0.87403600
    44  H          0.82486900       0.61642800       0.12596400
    45  H         -0.00324300       0.18014600       0.92543400
    46  H          0.00324300       0.68014600       0.07456600
    47  C          0.46911000       0.23960000       0.81960000
    48  C          0.53089000       0.73960000       0.18040000
    49  H          0.55245700       0.29031900       0.85040300
    50  H          0.44754300       0.79031900       0.14959700
    51  H          0.49955800       0.23813400       0.75236900
    52  H          0.50044200       0.73813400       0.24763100
    53  H          0.53252600       0.18479800       0.85022200
    54  H          0.46747400       0.68479800       0.14977800
    55  O          0.04750000       0.23111700       0.74401900
    56  O          0.95250000       0.73111700       0.25598100
    57  H          0.10455900       0.18822900       0.71622500
    58  H          0.89544100       0.68822900       0.28377500
    59  I          0.18885000       0.83962160       0.87795180
    60  I          0.81115000       0.33962160       0.12204820
    61  I          0.62886000       0.97584170       0.01961190
    62  I          0.37114000       0.47584170       0.98038810
    63  O         -0.02060000       0.05581400       0.67341900
    64  O          0.02060000       0.55581400       0.32658100
    65  O          0.90740000       0.96771400       0.54781600
    66  O          0.09260000       0.46771400       0.45218400
    67  N          0.43050000       0.99021700       0.53691900
    68  N          0.56950000       0.49021700       0.46308100
    69  H          0.26610700      -0.00692500       0.54115100
    70  H          0.73389300       0.49307500       0.45884900
    71  H          0.47018800       0.93514000       0.51803900
    72  H          0.52981200       0.43514000       0.48196100
    73  H          0.47262300       0.03056600       0.49409900
    74  H          0.52737700       0.53056600       0.50590100
    75  C          0.49760000       0.93351900       0.70120000
    76  C          0.50240000       0.43351900       0.29880000
    77  H          0.31749100       0.92397100       0.69591400
    78  H          0.68250900       0.42397100       0.30408600
    79  H          0.57489700       0.87735700       0.68420100
    80  H          0.42510300       0.37735700       0.31579900
    81  C          0.55860000       0.00920000       0.62720000
    82  C          0.44140000       0.50920000       0.37280000
    83  H          0.50552500       0.06749500       0.64979000
    84  H          0.49447500       0.56749500       0.35021000
    85  C          0.49270000       0.93320000       0.88530000
    86  C          0.50730000       0.43320000       0.11470000
    87  C          0.58670000       0.95820000       0.80120000
    88  C          0.41330000       0.45820000       0.19880000
    89  H          0.72541600      -0.00504600       0.80815600
    90  H          0.27458400       0.49495400       0.19184400
    91  C          0.84760000       0.01120000       0.61620000
    92  C          0.15240000       0.51120000       0.38380000
