data_DAWRAX
_symmetry_space_group_name_H-M    'P1'
_symmetry_Int_Tables_number       1
loop_
_symmetry_equiv_pos_site_id
_symmetry_equiv_pos_as_xyz
1 x,y,z
_cell_length_a                   9.2756
_cell_length_b                   9.8376
_cell_length_c                   15.7181
_cell_angle_alpha                108.1781
_cell_angle_beta                 90.9411
_cell_angle_gamma                106.8559
loop_
_atom_site_label
_atom_site_type_symbol
_atom_site_fract_x
_atom_site_fract_y
_atom_site_fract_z
     1  O          0.76868000       0.55737000       0.60794000
     2  O          0.23132000       0.44263000       0.39206000
     3  N          0.76709000       0.59678000       0.69655000
     4  N          0.23291000       0.40322000       0.30345000
     5  C          0.89351100       0.67131200       0.75267000
     6  C          0.10648900       0.32868800       0.24733000
     7  H         -0.01400000       0.69310000       0.72960000
     8  H          0.01400000       0.30690000       0.27040000
     9  C          0.88949000       0.71761100       0.84606000
    10  C          0.11051000       0.28238900       0.15394000
    11  H         -0.02060000       0.77070000       0.88420000
    12  H          0.02060000       0.22930000       0.11580000
    13  C          0.75518000       0.68608000       0.88236000
    14  C          0.24482000       0.31392000       0.11764000
    15  C          0.74608000       0.73918000       0.98146000
    16  C          0.25392000       0.26082000       0.01854000
    17  C          0.87549000       0.83011000       0.04256000
    18  C          0.12451000       0.16989000       0.95744000
    19  H          0.96850000       0.85680000       0.02080000
    20  H          0.03150000       0.14320000       0.97920000
    21  C          0.86751000       0.88151100       0.13506000
    22  C          0.13249000       0.11848900       0.86494000
    23  H          0.95480000       0.94220000       0.17420000
    24  H          0.04520000       0.05780000       0.82580000
    25  C          0.73031100       0.84261000       0.16856000
    26  C          0.26968900       0.15739000       0.83144000
    27  H          0.72490000       0.87580000       0.23030000
    28  H          0.27510000       0.12420000       0.76970000
    29  C          0.60081000       0.75371100       0.10937000
    30  C          0.39919000       0.24628900       0.89063000
    31  H          0.50800000       0.72860000       0.13160000
    32  H          0.49200000       0.27140000       0.86840000
    33  C          0.60779000       0.70151000       0.01696000
    34  C          0.39221000       0.29849000       0.98304000
    35  H          0.51980000       0.64120000       0.97820000
    36  H          0.48020000       0.35880000       0.02180000
    37  C          0.62321000       0.60531100       0.82056000
    38  C          0.37679000       0.39468900       0.17944000
    39  H          0.52920000       0.58310000       0.84190000
    40  H          0.47080000       0.41690000       0.15810000
    41  C          0.63111100       0.55931200       0.72977000
    42  C          0.36888900       0.44068800       0.27023000
    43  H          0.54330000       0.50210000       0.69010000
    44  H          0.45670000       0.49790000       0.30990000
    45  N          0.67441300       0.10181300       0.06009000
    46  N          0.32558700       0.89818700       0.93991000
    47  H          0.63710000       0.01160000       0.06120000
    48  H          0.36290000      -0.01160000       0.93880000
    49  C          0.70521200       0.23351500       0.13349000
    50  C          0.29478800       0.76648500       0.86651000
    51  C          0.68291400       0.23301800       0.22071500
    52  C          0.31708600       0.76698200       0.77928500
    53  H          0.64720000       0.14500000       0.23490000
    54  H          0.35280000       0.85500000       0.76510000
    55  C          0.72111400       0.38620000       0.28949000
    56  C          0.27888600       0.61380000       0.71051000
    57  H          0.70850000       0.39920000       0.34970000
    58  H          0.29150000       0.60080000       0.65030000
    59  C          0.77741400       0.50901600       0.25811000
    60  C          0.22258600       0.49098400       0.74189000
    61  H          0.80160000       0.60640000       0.29870000
    62  H          0.19840000       0.39360000       0.70130000
    63  C          0.79631200       0.48871700       0.17261100
    64  C          0.20368800       0.51128300       0.82738900
    65  H          0.83570000       0.57340000       0.15550000
    66  H          0.16430000       0.42660000       0.84450000
    67  C          0.76391400       0.36011800       0.11221000
    68  C          0.23608600       0.63988200       0.88779000
    69  C          0.77641100       0.30921600       0.01208000
    70  C          0.22358900       0.69078400       0.98792000
    71  C          0.81871200       0.36851400       0.94678800
    72  C          0.18128800       0.63148600       0.05321200
    73  H          0.85500000       0.47270000       0.96180000
    74  H          0.14500000       0.52730000       0.03820000
    75  C          0.81021500       0.28320000       0.86178900
    76  C          0.18978500       0.71680000       0.13821100
    77  H          0.84460000       0.32830000       0.81890000
    78  H          0.15540000       0.67170000       0.18110000
    79  C          0.75301600       0.13320000       0.83669000
    80  C          0.24698400       0.86680000       0.16331000
    81  H          0.74570000       0.07870000       0.77580000
    82  H          0.25430000       0.92130000       0.22420000
    83  C          0.70741100       0.05921300       0.89079000
    84  C          0.29258900       0.94078700       0.10921000
    85  H          0.67070000       0.95460000       0.86960000
    86  H          0.32930000       0.04540000       0.13040000
    87  C          0.71421100       0.14220000       0.98498900
    88  C          0.28578900       0.85780000       0.01501100
    89  I          0.64262600       0.73784500       0.55182300
    90  I          0.35737400       0.26215500       0.44817700
    91  F          0.59958000       0.80657000       0.36814000
    92  F          0.40042000       0.19343000       0.63186000
    93  F          0.50348000      -0.00713000       0.67114000
    94  F          0.49652000       0.00713000       0.32886000
    95  C          0.55857000       0.89498000       0.52075000
    96  C          0.44143000       0.10502000       0.47925000
    97  C          0.55019000       0.90158000       0.43495000
    98  C          0.44981000       0.09842000       0.56505000
    99  C          0.50511000      -0.00499000       0.58645000
   100  C          0.49489000       0.00499000       0.41355000
   101  I          0.86824500       0.31372500       0.55247300
   102  I          0.13175500       0.68627500       0.44752700
   103  F          0.91578000       0.08946000       0.36553000
   104  F          0.08422000       0.91054000       0.63447000
   105  F          0.97838000       0.14416000       0.67453000
   106  F          0.02162000       0.85584000       0.32547000
   107  C          0.94358000       0.12628000       0.52095000
   108  C          0.05642000       0.87372000       0.47905000
   109  C          0.95399000       0.04569000       0.43395000
   110  C          0.04601000       0.95431000       0.56605000
   111  C         -0.01161000       0.07559000       0.58715000
   112  C          0.01161000       0.92441000       0.41285000
