data_DAXMEY
_symmetry_space_group_name_H-M    'P1'
_symmetry_Int_Tables_number       1
loop_
_symmetry_equiv_pos_site_id
_symmetry_equiv_pos_as_xyz
1 x,y,z
_cell_length_a                   7.43602
_cell_length_b                   9.91655
_cell_length_c                   15.84787
_cell_angle_alpha                104.6874
_cell_angle_beta                 92.5323
_cell_angle_gamma                97.6173
loop_
_atom_site_label
_atom_site_type_symbol
_atom_site_fract_x
_atom_site_fract_y
_atom_site_fract_z
     1  Cl         0.44527500       0.07295400       0.13909300
     2  Cl         0.55472500       0.92704600       0.86090700
     3  S          0.00953400       0.24837300       0.04007200
     4  S         -0.00953400       0.75162700       0.95992800
     5  O          0.20070130       0.30101110       0.04619700
     6  O          0.79929870       0.69898890       0.95380300
     7  O          0.92489140       0.16569100       0.95605400
     8  O          0.07510860       0.83430900       0.04394600
     9  N          0.33709140       0.78698110       0.27144700
    10  N          0.66290860       0.21301890       0.72855300
    11  N          0.32807150       0.39754110       0.34589700
    12  N          0.67192850       0.60245890       0.65410300
    13  C          0.45179170       0.92391130       0.17647800
    14  C          0.54820830       0.07608870       0.82352200
    15  C          0.57259170       0.83146120       0.14572800
    16  C          0.42740830       0.16853880       0.85427200
    17  H          0.65115800       0.84667000       0.10229600
    18  H          0.34884200       0.15333000       0.89770400
    19  C          0.57614160       0.71535120       0.18008700
    20  C          0.42385840       0.28464880       0.81991300
    21  C          0.45987150       0.69960120       0.24592700
    22  C          0.54012850       0.30039880       0.75407300
    23  C          0.33262170       0.89693130       0.23709800
    24  C          0.66737830       0.10306870       0.76290200
    25  H          0.24532300       0.95812700       0.25476700
    26  H          0.75467700       0.04187300       0.74523300
    27  C          0.47307160       0.58891120       0.29307700
    28  C          0.52692840       0.41108880       0.70692300
    29  C          0.64090170       0.57301130       0.32970800
    30  C          0.35909830       0.42698870       0.67029200
    31  H          0.74854100       0.63273700       0.32458100
    32  H          0.25145900       0.36726300       0.67541900
    33  C          0.64866180       0.46951140       0.37344800
    34  C          0.35133820       0.53048860       0.62655200
    35  H          0.76191800       0.45770900       0.39862900
    36  H          0.23808200       0.54229100       0.60137100
    37  C          0.48968180       0.38242130       0.38048800
    38  C          0.51031820       0.61757870       0.61951200
    39  C          0.32111170       0.49842130       0.30342800
    40  C          0.67888830       0.50157870       0.69657200
    41  H          0.20600700       0.50836700       0.27917000
    42  H          0.79399300       0.49163300       0.72083000
    43  C          0.49312000       0.26797160       0.42679100
    44  C          0.50688000       0.73202840       0.57320900
    45  H          0.37015800       0.23951100       0.44212100
    46  H          0.62984200       0.76048900       0.55787900
    47  H          0.57538300       0.30307300       0.48020000
    48  H          0.42461700       0.69692700       0.51980000
    49  H          0.53598000       0.18665800       0.38826500
    50  H          0.46402000       0.81334200       0.61173500
    51  C          0.68954160       0.60529120       0.14339700
    52  C          0.31045840       0.39470880       0.85660300
    53  C          0.60089160       0.47086130       0.09907800
    54  C          0.39910840       0.52913870       0.90092200
    55  H          0.47165000       0.45300900       0.09235400
    56  H          0.52835000       0.54699100       0.90764600
    57  C          0.69960170       0.36381130       0.06499800
    58  C          0.30039830       0.63618870       0.93500200
    59  H          0.63935000       0.27293700       0.03407300
    60  H          0.36065000       0.72706300       0.96592700
    61  C          0.88903160       0.39130120       0.07670700
    62  C          0.11096840       0.60869880       0.92329300
    63  C         -0.02001840       0.52469120       0.11915700
    64  C          0.02001840       0.47530880       0.88084300
    65  H          0.10923500       0.54227800       0.12562500
    66  H          0.89076500       0.45772200       0.87437500
    67  C          0.87915160       0.63194120       0.15198700
    68  C          0.12084840       0.36805880       0.84801300
    69  H          0.93972600       0.72389800       0.18043000
    70  H          0.06027400       0.27610200       0.81957000
    71  C          0.96952000       0.15010160       0.11669100
    72  C          0.03048000       0.84989840       0.88330900
    73  H          0.83821700       0.12120900       0.11665100
    74  H          0.16178300       0.87879100       0.88334900
    75  H          0.01773600       0.20789200       0.17507000
    76  H         -0.01773600       0.79210800       0.82493000
    77  H          0.03004600       0.06623200       0.10123200
    78  H          0.96995400       0.93376800       0.89876800
    79  O          0.05731150       0.17097120       0.31509600
    80  O          0.94268850       0.82902880       0.68490400
    81  H          0.13325600       0.24428700       0.33484200
    82  H          0.86674400       0.75571300       0.66515800
    83  O          0.92393870       0.27663100       0.61435600
    84  O          0.07606130       0.72336900       0.38564400
    85  H          0.84979100       0.24899000       0.64708100
    86  H          0.15020900       0.75101000       0.35291900
    87  C         -0.01239160       0.22810130       0.46629800
    88  C          0.01239160       0.77189870       0.53370200
    89  H          0.06840300       0.31463500       0.47925400
    90  H          0.93159700       0.68536500       0.52074600
    91  C          0.96359830       0.14034130       0.38152800
    92  C          0.03640170       0.85965870       0.61847200
    93  C          0.84201820       0.01512140       0.36185800
    94  C          0.15798180      -0.01512140       0.63814200
    95  H          0.82438600       0.95581900       0.30386300
    96  H          0.17561400       0.04418100       0.69613700
    97  C          0.74685820       0.97792870       0.42795900
    98  C          0.25314180       0.02207130       0.57204100
    99  H          0.66380500       0.89252000       0.41470500
   100  H          0.33619500       0.10748000       0.58529500
   101  C          0.77081830       0.06325130       0.51307800
   102  C          0.22918170       0.93674870       0.48692200
   103  H          0.70507500       0.03665100       0.55780400
   104  H          0.29492500       0.96334900       0.44219600
   105  C          0.89242840       0.18822120       0.53193700
   106  C          0.10757160       0.81177880       0.46806300
