data_DAYHUH
_symmetry_space_group_name_H-M    'P1'
_symmetry_Int_Tables_number       1
loop_
_symmetry_equiv_pos_site_id
_symmetry_equiv_pos_as_xyz
1 x,y,z
_cell_length_a                   8.35895
_cell_length_b                   11.99037
_cell_length_c                   24.143814
_cell_angle_alpha                75.5075
_cell_angle_beta                 86.0635
_cell_angle_gamma                77.4185
loop_
_atom_site_label
_atom_site_type_symbol
_atom_site_fract_x
_atom_site_fract_y
_atom_site_fract_z
     1  Br         0.18264700       0.87358500       0.75545681
     2  Br         0.81735300       0.12641500       0.24454319
     3  S          0.26983130       0.10008700       0.07543400
     4  S          0.73016870       0.89991300       0.92456600
     5  N          0.40443000       0.91322000       0.14726100
     6  N          0.59557000       0.08678000       0.85273900
     7  H          0.45010000       0.84140000       0.16240000
     8  H          0.54990000       0.15860000       0.83760000
     9  N          0.36653000       0.88262000       0.05665110
    10  N          0.63347000       0.11738000       0.94334890
    11  N          0.28783000       0.94572000       0.00618110
    12  N          0.71217000       0.05428000       0.99381890
    13  O          0.07933000       0.12242000       0.94611890
    14  O          0.92067000       0.87758000       0.05388110
    15  H          0.13640000       0.08560000       0.97380000
    16  H          0.86360000       0.91440000       0.02620000
    17  C          0.42464000       0.98233000       0.23728140
    18  C          0.57536000       0.01767000       0.76271860
    19  H          0.54410000       0.96970000       0.23950000
    20  H          0.45590000       0.03030000       0.76050000
    21  C          0.34185000       0.08073000       0.26662150
    22  C          0.65815000       0.91927000       0.73337850
    23  H          0.23490000       0.12240000       0.25150000
    24  H          0.76510000       0.87760000       0.74850000
    25  H          0.41080000       0.13550000       0.26790000
    26  H          0.58920000       0.86450000       0.73210000
    27  C          0.33404000       0.98733000       0.32415140
    28  C          0.66596000       0.01267000       0.67584860
    29  C          0.35904000       0.89503000       0.28656130
    30  C          0.64096000       0.10497000       0.71343870
    31  H          0.43940000       0.82380000       0.30160000
    32  H          0.56060000       0.17620000       0.69840000
    33  H          0.25760000       0.87640000       0.27790000
    34  H          0.74240000       0.12360000       0.72210000
    35  C          0.17944000      -0.00257000       0.36140140
    36  C          0.82056000       0.00257000       0.63859860
    37  C          0.08305000       0.10763000       0.36546150
    38  C          0.91695000       0.89237000       0.63453850
    39  C          0.94475000       0.11144000       0.40085170
    40  C          0.05525000       0.88856000       0.59914830
    41  H          0.88200000       0.18480000       0.40250000
    42  H          0.11800000       0.81520000       0.59750000
    43  C          0.89575000       0.01354000       0.43341180
    44  C          0.10425000       0.98646000       0.56658820
    45  C         -0.00765000       0.90654000       0.43008170
    46  C          0.00765000       0.09346000       0.56991830
    47  H          0.96240000       0.83810000       0.45170000
    48  H          0.03760000       0.16190000       0.54830000
    49  C          0.13314000       0.89633000       0.39575150
    50  C          0.86686000       0.10367000       0.60424850
    51  C          0.12546000       0.22333000       0.33522000
    52  C          0.87454000       0.77667000       0.66478000
    53  H          0.24080000       0.21830000       0.33830000
    54  H          0.75920000       0.78170000       0.66170000
    55  H          0.06500000       0.28420000       0.35230000
    56  H          0.93500000       0.71580000       0.64770000
    57  H          0.09760000       0.24140000       0.29550000
    58  H          0.90240000       0.75860000       0.70450000
    59  C          0.74585000       0.02135000       0.47272000
    60  C          0.25415000       0.97865000       0.52728000
    61  H          0.70880000       0.94850000       0.48090000
    62  H          0.29120000       0.05150000       0.51910000
    63  H          0.66030000       0.08440000       0.45430000
    64  H          0.33970000       0.91560000       0.54570000
    65  H          0.77400000       0.03610000       0.50770000
    66  H          0.22600000       0.96390000       0.49230000
    67  C          0.23335000       0.77273000       0.40088180
    68  C          0.76665000       0.22727000       0.59911820
    69  H          0.34690000       0.77230000       0.40480000
    70  H          0.65310000       0.22770000       0.59520000
    71  H          0.21960000       0.74710000       0.36720000
    72  H          0.78040000       0.25290000       0.63280000
    73  H          0.19670000       0.72040000       0.43390000
    74  H          0.80330000       0.27960000       0.56610000
    75  C          0.48365000       0.97334000       0.36032170
    76  C          0.51635000       0.02666000       0.63967830
    77  H          0.58100000       0.96650000       0.33680000
    78  H          0.41900000       0.03350000       0.66320000
    79  H          0.49110000       0.90380000       0.39100000
    80  H          0.50890000       0.09620000       0.60900000
    81  H          0.47270000       0.04100000       0.37590000
    82  H          0.52730000       0.95900000       0.62410000
    83  C          0.37584000       0.00213000       0.17669130
    84  C          0.62416000      -0.00213000       0.82330870
    85  C          0.30605000       0.10573000       0.14373150
    86  C          0.69395000       0.89427000       0.85626850
    87  H          0.27930000       0.17460000       0.15650000
    88  H          0.72070000       0.82540000       0.84350000
    89  C          0.35364000       0.95083000       0.09307130
    90  C          0.64636000       0.04917000       0.90692870
    91  C          0.30504000       0.89603000       0.96433870
    92  C          0.69496000       0.10397000       0.03566130
    93  H          0.37460000       0.82270000       0.96780000
    94  H          0.62540000       0.17730000       0.03220000
    95  C          0.21724000       0.95283000       0.91176870
    96  C          0.78276000       0.04717000       0.08823130
    97  C          0.23914000       0.89713000       0.86663860
    98  C          0.76086000       0.10287000       0.13336140
    99  H          0.31240000       0.82530000       0.87020000
   100  H          0.68760000       0.17470000       0.12980000
   101  C          0.15305000       0.94783000       0.81697850
   102  C          0.84695000       0.05217000       0.18302150
   103  C          0.04455000       0.05474000       0.81089830
   104  C          0.95545000       0.94526000       0.18910170
   105  H          0.98710000       0.08850000       0.77710000
   106  H          0.01290000       0.91150000       0.22290000
   107  C          0.02105000       0.11123000       0.85467830
   108  C          0.97895000       0.88877000       0.14532170
   109  H          0.94690000       0.18280000       0.85040000
   110  H          0.05310000       0.81720000       0.14960000
   111  C          0.10644000       0.06273000       0.90507850
   112  C          0.89356000       0.93727000       0.09492150
   113  Br         0.93672600       0.60101300       0.83995385
   114  Br         0.06327400       0.39898700       0.16004615
   115  S          0.52158110       0.43925700       0.16823400
   116  S          0.47841890       0.56074300       0.83176600
   117  N          0.50303000       0.65142000       0.17666100
   118  N          0.49697000       0.34858000       0.82333900
   119  N          0.34603000       0.64002000       0.10245110
   120  N          0.65397000       0.35998000       0.89754890
   121  H          0.29560000       0.71250000       0.09610000
   122  H          0.70440000       0.28750000       0.90390000
   123  N          0.32573000       0.56722000       0.06846100
   124  N          0.67427000       0.43278000       0.93153900
   125  O          0.38923000       0.36565180       0.03793900
   126  O          0.61077000       0.63434820       0.96206100
   127  H          0.39640000       0.41100000       0.05760000
   128  H          0.60360000       0.58900000       0.94240000
   129  C          0.68244000       0.63363000       0.25678130
   130  C          0.31756000       0.36637000       0.74321870
   131  H          0.62970000       0.71710000       0.25010000
   132  H          0.37030000       0.28290000       0.74990000
   133  C          0.86914000       0.62083000       0.25665140
   134  C          0.13086000       0.37917000       0.74334860
   135  H          0.90680000       0.68890000       0.23330000
   136  H          0.09320000       0.31110000       0.76670000
   137  H          0.92950000       0.54900000       0.24720000
   138  H          0.07050000       0.45100000       0.75280000
   139  C          0.86274000       0.61533000       0.32189130
   140  C          0.13726000       0.38467000       0.67810870
   141  C          0.69464000       0.57893000       0.32153140
   142  C          0.30536000       0.42107000       0.67846860
   143  H          0.70210000       0.49440000       0.33180000
   144  H          0.29790000       0.50560000       0.66820000
   145  H          0.60950000       0.61760000       0.34380000
   146  H          0.39050000       0.38240000       0.65620000
   147  C         -0.00136000       0.53313000       0.35963140
   148  C          0.00136000       0.46687000       0.64036860
   149  C          0.16394000       0.52313000       0.34104160
   150  C          0.83606000       0.47687000       0.65895840
   151  C          0.28585000       0.44774000       0.37712000
   152  C          0.71415000       0.55226000       0.62288000
   153  H          0.39420000       0.44070000       0.36440000
   154  H          0.60580000       0.55930000       0.63560000
   155  C          0.25366000       0.38364000       0.43042000
   156  C          0.74634000       0.61636000       0.56958000
   157  C          0.09416000       0.39774000       0.44876180
   158  C          0.90584000       0.60226000       0.55123820
   159  H          0.07040000       0.35680000       0.48550000
   160  H          0.92960000       0.64320000       0.51450000
   161  C          0.96584000       0.46983000       0.41534150
   162  C          0.03416000       0.53017000       0.58465850
   163  C          0.21635000       0.59224000       0.28422190
   164  C          0.78365000       0.40776000       0.71577810
   165  H          0.15110000       0.67070000       0.27610000
   166  H          0.84890000       0.32930000       0.72390000
   167  H          0.20160000       0.55460000       0.25470000
   168  H          0.79840000       0.44540000       0.74530000
   169  H          0.32980000       0.59520000       0.28560000
   170  H          0.67020000       0.40480000       0.71440000
   171  C          0.39317000       0.30195000       0.46763000
   172  C          0.60683000       0.69805000       0.53237000
   173  H          0.34840000       0.25370000       0.50030000
   174  H          0.65160000       0.74630000       0.49970000
   175  H          0.45740000       0.34810000       0.48010000
   176  H          0.54260000       0.65190000       0.51990000
   177  H          0.46130000       0.25250000       0.44580000
   178  H          0.53870000       0.74750000       0.55420000
   179  C          0.79695000       0.47815000       0.44131160
   180  C          0.20305000       0.52185000       0.55868840
   181  H          0.73760000       0.55820000       0.43100000
   182  H          0.26240000       0.44180000       0.56900000
   183  H          0.80430000       0.45210000       0.48220000
   184  H          0.19570000       0.54790000       0.51780000
   185  H          0.74050000       0.42910000       0.42740000
   186  H          0.25950000       0.57090000       0.57260000
   187  C          0.83795000       0.73863000       0.33286170
   188  C          0.16205000       0.26137000       0.66713830
   189  H          0.75200000       0.79110000       0.30900000
   190  H          0.24800000       0.20890000       0.69100000
   191  H          0.93780000       0.76700000       0.32420000
   192  H          0.06220000       0.23300000       0.67580000
   193  H          0.80830000       0.73480000       0.37230000
   194  H          0.19170000       0.26520000       0.62770000
   195  C          0.60764000       0.57833000       0.21914130
   196  C          0.39236000       0.42167000       0.78085870
   197  C          0.63104000       0.46363000       0.22079150
   198  C          0.36896000       0.53637000       0.77920850
   199  H          0.69770000       0.40440000       0.24690000
   200  H          0.30230000       0.59560000       0.75310000
   201  C          0.45013000       0.58992000       0.14625120
   202  C          0.54987000       0.41008000       0.85374880
   203  C          0.22984000       0.61163000       0.02600130
   204  C          0.77016000       0.38837000       0.97399870
   205  H          0.17400000       0.68960000       0.02000000
   206  H          0.82600000       0.31040000       0.98000000
   207  C          0.20643000       0.54192000       0.98681880
   208  C          0.79357000       0.45808000       0.01318120
   209  C          0.10353000       0.59393000       0.94038880
   210  C          0.89647000       0.40607000       0.05961120
   211  H          0.05170000       0.67280000       0.93440000
   212  H          0.94830000       0.32720000       0.06560000
   213  C          0.07784000       0.52963000       0.90312880
   214  C          0.92216000       0.47037000       0.09687120
   215  C          0.15454000       0.41233000       0.91101870
   216  C          0.84546000       0.58767000       0.08898130
   217  H          0.13590000       0.36930000       0.88590000
   218  H          0.86410000       0.63070000       0.11410000
   219  C          0.25804000       0.35993000       0.95615870
   220  C          0.74196000       0.64007000       0.04384130
   221  H          0.31030000       0.28130000       0.96130000
   222  H          0.68970000       0.71870000       0.03870000
   223  C          0.28544000       0.42282000      -0.00591120
   224  C          0.71456000       0.57718000       0.00591120
