data_DBTTNB
_symmetry_space_group_name_H-M    'P1'
_symmetry_Int_Tables_number       1
loop_
_symmetry_equiv_pos_site_id
_symmetry_equiv_pos_as_xyz
1 x,y,z
_cell_length_a                   6.9261
_cell_length_b                   9.4671
_cell_length_c                   14.2761
_cell_angle_alpha                101.341
_cell_angle_beta                 99.041
_cell_angle_gamma                102.561
loop_
_atom_site_label
_atom_site_type_symbol
_atom_site_fract_x
_atom_site_fract_y
_atom_site_fract_z
     1  C          0.74140000       0.18190000       0.18910000
     2  C          0.25860000       0.81810000       0.81090000
     3  C          0.78660000       0.33510000       0.20680000
     4  C          0.21340000       0.66490000       0.79320000
     5  C          0.80070000       0.41200000       0.30130000
     6  C          0.19930000       0.58800000       0.69870000
     7  C          0.77320000       0.34340000       0.37560000
     8  C          0.22680000       0.65660000       0.62440000
     9  C          0.72920000       0.18970000       0.35280000
    10  C          0.27080000       0.81030000       0.64720000
    11  C          0.71280000       0.10580000       0.26020000
    12  C          0.28720000       0.89420000       0.73980000
    13  N          0.72920000       0.09670000       0.08970000
    14  N          0.27080000       0.90330000       0.91030000
    15  N          0.85130000       0.57780000       0.32320000
    16  N          0.14870000       0.42220000       0.67680000
    17  N          0.70390000       0.11400000       0.43260000
    18  N          0.29610000       0.88600000       0.56740000
    19  O          0.67610000       0.96140000       0.07280000
    20  O          0.32390000       0.03860000       0.92720000
    21  O          0.77600000       0.16600000       0.02960000
    22  O          0.22400000       0.83400000       0.97040000
    23  O          0.87440000       0.63500000       0.25560000
    24  O          0.12560000       0.36500000       0.74440000
    25  O          0.86620000       0.64330000       0.40710000
    26  O          0.13380000       0.35670000       0.59290000
    27  O          0.69230000       0.18750000       0.51080000
    28  O          0.30770000       0.81250000       0.48920000
    29  O          0.69530000      -0.01880000       0.41440000
    30  O          0.30470000       0.01880000       0.58560000
    31  H          0.80600000       0.38430000       0.15600000
    32  H          0.19400000       0.61570000       0.84400000
    33  H          0.78620000       0.40010000       0.44340000
    34  H          0.21380000       0.59990000       0.55660000
    35  H          0.68440000       0.00050000       0.24300000
    36  H          0.31560000      -0.00050000       0.75700000
    37  S          0.67300000       0.53620000       0.62160000
    38  S          0.32700000       0.46380000       0.37840000
    39  C          0.77480000       0.84030000       0.62390000
    40  C          0.22520000       0.15970000       0.37610000
    41  C          0.83000000      -0.01460000       0.67720000
    42  C          0.17000000       0.01460000       0.32280000
    43  C          0.84860000       0.01970000       0.77730000
    44  C          0.15140000       0.98030000       0.22270000
    45  C          0.81010000       0.90910000       0.82670000
    46  C          0.18990000       0.09090000       0.17330000
    47  C          0.72310000       0.61300000       0.90650000
    48  C          0.27690000       0.38700000       0.09350000
    49  C          0.68130000       0.47060000       0.92420000
    50  C          0.31870000       0.52940000       0.07580000
    51  C          0.63530000       0.34600000       0.84780000
    52  C          0.36470000       0.65400000       0.15220000
    53  C          0.62860000       0.35560000       0.75440000
    54  C          0.37140000       0.64440000       0.24560000
    55  C          0.73970000       0.72830000       0.67400000
    56  C          0.26030000       0.27170000       0.32600000
    57  C          0.75720000       0.76020000       0.77490000
    58  C          0.24280000       0.23980000       0.22510000
    59  C          0.67080000       0.49720000       0.73570000
    60  C          0.32920000       0.50280000       0.26430000
    61  C          0.71740000       0.62600000       0.81120000
    62  C          0.28260000       0.37400000       0.18880000
    63  H          0.76280000       0.81610000       0.55640000
    64  H          0.23720000       0.18390000       0.44360000
    65  H          0.86510000       0.06420000       0.64610000
    66  H          0.13490000       0.93580000       0.35390000
    67  H          0.88940000       0.12010000       0.81580000
    68  H          0.11060000       0.87990000       0.18420000
    69  H          0.82140000       0.93170000       0.89850000
    70  H          0.17860000       0.06830000       0.10150000
    71  H          0.76330000       0.70480000       0.96260000
    72  H          0.23670000       0.29520000       0.03740000
    73  H          0.69230000       0.47270000      -0.00790000
    74  H          0.30770000       0.52730000       0.00790000
    75  H          0.59850000       0.24370000       0.86510000
    76  H          0.40150000       0.75630000       0.13490000
    77  H          0.59290000       0.26890000       0.70180000
    78  H          0.40710000       0.73110000       0.29820000
