data_DEBHUO
_symmetry_space_group_name_H-M    'P1'
_symmetry_Int_Tables_number       1
loop_
_symmetry_equiv_pos_site_id
_symmetry_equiv_pos_as_xyz
1 x,y,z
_cell_length_a                   8.262713
_cell_length_b                   10.041516
_cell_length_c                   10.372617
_cell_angle_alpha                90.4013
_cell_angle_beta                 102.3383
_cell_angle_gamma                96.7604
loop_
_atom_site_label
_atom_site_type_symbol
_atom_site_fract_x
_atom_site_fract_y
_atom_site_fract_z
     1  O          0.05734140       0.08822100       0.67910110
     2  O          0.94265860       0.91177900       0.32089890
     3  H          0.13120000       0.04220000       0.72231800
     4  H          0.86880000       0.95780000       0.27768200
     5  O          0.28112150       0.92306100       0.80676110
     6  O          0.71887850       0.07693900       0.19323890
     7  H          0.34030000       0.90720000       0.74820000
     8  H          0.65970000       0.09280000       0.25180000
     9  O          0.42110130       0.63166110       0.51464100
    10  O          0.57889870       0.36833890       0.48535900
    11  H          0.46920000       0.62420000       0.45320000
    12  H          0.53080000       0.37580000       0.54680000
    13  C          0.31103150       0.64184120       0.74875120
    14  C          0.68896850       0.35815880       0.25124880
    15  H          0.24770000       0.69010000       0.67560000
    16  H          0.75230000       0.30990000       0.32440000
    17  C          0.25103150       0.49218120       0.72208110
    18  C          0.74896850       0.50781880       0.27791890
    19  C          0.35293160       0.39442130       0.76720130
    20  C          0.64706840       0.60557870       0.23279870
    21  H          0.46540000       0.42030000       0.80800000
    22  H          0.53460000       0.57970000       0.19200000
    23  C          0.29197170       0.25902130       0.75317130
    24  C          0.70802830       0.74097870       0.24682870
    25  H          0.36280000       0.19430000       0.78490000
    26  H          0.63720000       0.80570000       0.21510000
    27  C          0.12720160       0.21946130       0.69261130
    28  C          0.87279840       0.78053870       0.30738870
    29  C          0.02517160       0.31578130       0.64289130
    30  C          0.97482840       0.68421870       0.35710870
    31  H          0.91410000       0.28960000       0.59860000
    32  H          0.08590000       0.71040000       0.40140000
    33  C          0.08701150       0.45014130       0.65857120
    34  C          0.91298850       0.54985870       0.34142880
    35  H          0.01650000       0.51460000       0.62550000
    36  H         -0.01650000       0.48540000       0.37450000
    37  C          0.27065150       0.69211120       0.87627120
    38  C          0.72934850       0.30788880       0.12372880
    39  C          0.23848170       0.60562140       0.97432130
    40  C          0.76151830       0.39437860       0.02567870
    41  H          0.24260000       0.51330000       0.96200000
    42  H          0.75740000       0.48670000       0.03800000
    43  C          0.20067180       0.65070150       0.08932130
    44  C          0.79932820       0.34929850       0.91067870
    45  H          0.17880000       0.58960000       0.15350000
    46  H          0.82120000       0.41040000       0.84650000
    47  C          0.19515180       0.78533150       0.10936140
    48  C          0.80484820       0.21466850       0.89063860
    49  H          0.17040000       0.81670000       0.18770000
    50  H          0.82960000       0.18330000       0.81230000
    51  C          0.22603180       0.87422150       0.01428140
    52  C          0.77396820       0.12577850       0.98571860
    53  H          0.22250000       0.96640000       0.02790000
    54  H          0.77750000       0.03360000       0.97210000
    55  C          0.26231160       0.82806130       0.89835130
    56  C          0.73768840       0.17193870       0.10164870
    57  C          0.49508150       0.67319120       0.74545120
    58  C          0.50491850       0.32680880       0.25454880
    59  C          0.54510160       0.66150130       0.62601130
    60  C          0.45489840       0.33849870       0.37398870
    61  C          0.71157190       0.68230140       0.61973160
    62  C          0.28842810       0.31769860       0.38026840
    63  H          0.74310000       0.67210000       0.53870000
    64  H          0.25690000       0.32790000       0.46130000
    65  C          0.83097180       0.71803150       0.73296170
    66  C          0.16902820       0.28196850       0.26703830
    67  H          0.94420000       0.73290000       0.72880000
    68  H          0.05580000       0.26710000       0.27120000
    69  C          0.78597180       0.73206150       0.85207160
    70  C          0.21402820       0.26793850       0.14792840
    71  H          0.86770000       0.75700000       0.92910000
    72  H          0.13230000       0.24300000       0.07090000
    73  C          0.61854170       0.70900140       0.85740140
    74  C          0.38145830       0.29099860       0.14259860
    75  H          0.58820000       0.71790000       0.93910000
    76  H          0.41180000       0.28210000       0.06090000
    77  N          0.43565150       0.95878120       0.60778110
    78  N          0.56434850       0.04121880       0.39221890
    79  C          0.33706180       0.97850140       0.49245150
    80  C          0.66293820       0.02149860       0.50754850
    81  H          0.22070000       0.96430000       0.48370000
    82  H          0.77930000       0.03570000       0.51630000
    83  C          0.59879190       0.98070140       0.61461140
    84  C          0.40120810       0.01929860       0.38538860
    85  H          0.67250000       0.96800000       0.69490000
    86  H          0.32750000       0.03200000       0.30510000
