data_DEFCUM
_symmetry_space_group_name_H-M    'P1'
_symmetry_Int_Tables_number       1
loop_
_symmetry_equiv_pos_site_id
_symmetry_equiv_pos_as_xyz
1 x,y,z
_cell_length_a                   3.9992
_cell_length_b                   8.4394
_cell_length_c                   11.3193
_cell_angle_alpha                77.963
_cell_angle_beta                 88.642
_cell_angle_gamma                82.693
loop_
_atom_site_label
_atom_site_type_symbol
_atom_site_fract_x
_atom_site_fract_y
_atom_site_fract_z
     1  O          0.96613000       0.93579000       0.15585700
     2  O          0.03387000       0.06421000       0.84414300
     3  O          0.15574000       0.15671000       0.04921900
     4  O          0.84426000       0.84329000       0.95078100
     5  C          0.04134000       0.03131000       0.05691000
     6  C          0.95866000       0.96869000       0.94309000
     7  H          0.02050000       0.97880000       0.23420000
     8  H         -0.02050000       0.02120000       0.76580000
     9  O          0.07893000       0.03721000       0.34501700
    10  O          0.92107000       0.96279000       0.65498300
    11  O          0.92147000       0.81621000       0.46578900
    12  O          0.07853000       0.18379000       0.53421100
    13  C         -0.00194000       0.95602000       0.44591000
    14  C          0.00194000       0.04398000       0.55409000
    15  N          0.35623000       0.34502000       0.33011000
    16  N          0.64377000       0.65498000       0.66989000
    17  C          0.49875000       0.31982000       0.22892000
    18  C          0.50125000       0.68018000       0.77108000
    19  C          0.63875000       0.44272000       0.15401000
    20  C          0.36125000       0.55728000       0.84599000
    21  C          0.62695000       0.59102000       0.18632000
    22  C          0.37305000       0.40898000       0.81368000
    23  C          0.47855000       0.61332000       0.29172000
    24  C          0.52145000       0.38668000       0.70828000
    25  C          0.34245000       0.48802000       0.36331000
    26  C          0.65755000       0.51198000       0.63669000
    27  H          0.26060000       0.26630000       0.38420000
    28  H          0.73940000       0.73370000       0.61580000
    29  H          0.48850000       0.21820000       0.21220000
    30  H          0.51150000       0.78180000       0.78780000
    31  H          0.73150000       0.42120000       0.08420000
    32  H          0.26850000       0.57880000       0.91580000
    33  H          0.71750000       0.67420000       0.13320000
    34  H          0.28250000       0.32580000       0.86680000
    35  H          0.47250000       0.70920000       0.31920000
    36  H          0.52750000       0.29080000       0.68080000
    37  H          0.25260000       0.48830000       0.44220000
    38  H          0.74740000       0.51170000       0.55780000
