data_DEGLOQ
_symmetry_space_group_name_H-M    'P1'
_symmetry_Int_Tables_number       1
loop_
_symmetry_equiv_pos_site_id
_symmetry_equiv_pos_as_xyz
1 x,y,z
_cell_length_a                   10.2242
_cell_length_b                   12.1583
_cell_length_c                   7.1882
_cell_angle_alpha                95.742
_cell_angle_beta                 106.642
_cell_angle_gamma                93.972
loop_
_atom_site_label
_atom_site_type_symbol
_atom_site_fract_x
_atom_site_fract_y
_atom_site_fract_z
     1  Cl         0.36093700       0.11565600       0.10730120
     2  Cl         0.63906300       0.88434400       0.89269880
     3  Cl         0.37011700       0.41098600       0.07354110
     4  Cl         0.62988300       0.58901400       0.92645890
     5  Cl         0.33713700       0.50182600       0.56748110
     6  Cl         0.66286300       0.49817400       0.43251890
     7  S          0.24631700       0.32015600       0.23134110
     8  S          0.75368300       0.67984400       0.76865890
     9  N          0.14602000       0.23602000       0.05294000
    10  N          0.85398000       0.76398000       0.94706000
    11  N          0.11142000       0.06392000       0.87636000
    12  N          0.88858000       0.93608000       0.12364000
    13  N          0.13942000       0.40942000       0.24364000
    14  N          0.86058000       0.59058000       0.75636000
    15  N          0.09982000       0.57042000       0.40344000
    16  N          0.90018000       0.42958000       0.59656000
    17  C          0.19213000       0.14172000       0.00494000
    18  C          0.80787000       0.85828000      -0.00494000
    19  C          0.15973000       0.96428000       0.79575000
    20  C          0.84027000       0.03572000       0.20425000
    21  C          0.96957000       0.08552000       0.77856000
    22  C          0.03043000       0.91448000       0.22144000
    23  C          0.17983000       0.49162000       0.38944000
    24  C          0.82017000       0.50838000       0.61056000
    25  C          0.13783000       0.66682000       0.55525000
    26  C          0.86217000       0.33318000       0.44475000
    27  C          0.97187000       0.57222000       0.24494000
    28  C          0.02813000       0.42778000       0.75506000
    29  H          0.21980000       0.98630000       0.71580000
    30  H          0.78020000       0.01370000       0.28420000
    31  H          0.21230000       0.92540000       0.90560000
    32  H          0.78770000       0.07460000       0.09440000
    33  H          0.07880000       0.91290000       0.71180000
    34  H          0.92120000       0.08710000       0.28820000
    35  H          0.91310000       0.01320000       0.71790000
    36  H          0.08690000       0.98680000       0.28210000
    37  H          0.92980000       0.12280000       0.87730000
    38  H          0.07020000       0.87720000       0.12270000
    39  H          0.96950000       0.13420000       0.67510000
    40  H          0.03050000       0.86580000       0.32490000
    41  H          0.18610000       0.72760000       0.50900000
    42  H          0.81390000       0.27240000       0.49100000
    43  H          0.05320000       0.69250000       0.58150000
    44  H          0.94680000       0.30750000       0.41850000
    45  H          0.19990000       0.64530000       0.67840000
    46  H          0.80010000       0.35470000       0.32160000
    47  H          0.92590000       0.49510000       0.19530000
    48  H          0.07410000       0.50490000       0.80470000
    49  H          0.90800000       0.61730000       0.29530000
    50  H          0.09200000       0.38270000       0.70470000
    51  H         -0.00690000       0.60650000       0.13470000
    52  H          0.00690000       0.39350000       0.86530000
    53  Cl         0.17831700       0.19636800       0.50846110
    54  Cl         0.82168300       0.80363200       0.49153890
    55  Cl         0.36900800       0.89319700       0.47581130
    56  Cl         0.63099200       0.10680300       0.52418870
    57  Cl         0.26074900       0.69959700       0.09070130
    58  Cl         0.73925100       0.30040300       0.90929870
    59  C          0.47263000       0.84273000       0.32786000
    60  C          0.52737000       0.15727000       0.67214000
    61  C          0.43414000       0.72513000       0.24846000
    62  C          0.56586000       0.27487000       0.75154000
    63  H          0.46180000       0.88790000       0.21570000
    64  H          0.53820000       0.11210000       0.78430000
    65  H          0.57110000       0.85260000       0.40940000
    66  H          0.42890000       0.14740000       0.59060000
    67  H          0.44350000       0.68010000       0.36050000
    68  H          0.55650000       0.31990000       0.63950000
    69  H          0.49750000       0.70100000       0.17270000
    70  H          0.50250000       0.29900000       0.82730000
