data_DEHJAB
_symmetry_space_group_name_H-M    'P1'
_symmetry_Int_Tables_number       1
loop_
_symmetry_equiv_pos_site_id
_symmetry_equiv_pos_as_xyz
1 x,y,z
_cell_length_a                   9.9352
_cell_length_b                   11.5072
_cell_length_c                   16.6463
_cell_angle_alpha                90.911
_cell_angle_beta                 112.001
_cell_angle_gamma                96.601
loop_
_atom_site_label
_atom_site_type_symbol
_atom_site_fract_x
_atom_site_fract_y
_atom_site_fract_z
     1  I          0.12290000       0.43860000       0.28500000
     2  I          0.87710000       0.56140000       0.71500000
     3  P          0.77648000       0.39681000       0.16701000
     4  P          0.22352000       0.60319000       0.83299000
     5  P          0.90908000       0.20821000       0.29501000
     6  P          0.09092000       0.79179000       0.70499000
     7  C          0.91554000       0.33396000       0.24334000
     8  C          0.08446000       0.66604000       0.75666000
     9  C          0.77904000       0.38156000       0.05954000
    10  C          0.22096000       0.61844000       0.94046000
    11  C          0.68732000       0.44446000      -0.00875000
    12  C          0.31268000       0.55554000       0.00875000
    13  C          0.68789000       0.43388000       0.90975000
    14  C          0.31211000       0.56612000       0.09025000
    15  C          0.77798900       0.35956000       0.89285000
    16  C          0.22201100       0.64044000       0.10715000
    17  C          0.87029000       0.30436000       0.95975000
    18  C          0.12971000       0.69564000       0.04025000
    19  C          0.87072000       0.31496000       0.04174000
    20  C          0.12928000       0.68504000       0.95826000
    21  C          0.59764000       0.33276000       0.16124000
    22  C          0.40236000       0.66724000       0.83876000
    23  C          0.49104000       0.28326000       0.08325000
    24  C          0.50896000       0.71674000       0.91675000
    25  C          0.35312000       0.24078000       0.07956000
    26  C          0.64688000       0.75922000       0.92044000
    27  C          0.32262000       0.24126000       0.15456000
    28  C          0.67738000       0.75874000       0.84544000
    29  C          0.42631000       0.28858000       0.23195000
    30  C          0.57369000       0.71142000       0.76805000
    31  C          0.56434000       0.33456000       0.23594000
    32  C          0.43566000       0.66544000       0.76406000
    33  C          0.79584000       0.55395000       0.19184000
    34  C          0.20416000       0.44605000       0.80816000
    35  C          0.87072000       0.63166000       0.15475000
    36  C          0.12928000       0.36834000       0.84525000
    37  C          0.89611000       0.74826000       0.17716000
    38  C          0.10389000       0.25174000       0.82284000
    39  C          0.84821000       0.79396000       0.23906000
    40  C          0.15179000       0.20604000       0.76094000
    41  C          0.77439000       0.71486000       0.27516000
    42  C          0.22561000       0.28514000       0.72484000
    43  C          0.74701000       0.59886000       0.25175000
    44  C          0.25299000       0.40114000       0.74825000
    45  C          0.75704000       0.10075000       0.22864000
    46  C          0.24296000       0.89925000       0.77136000
    47  C          0.74632000       0.06486000       0.14524000
    48  C          0.25368000       0.93514000       0.85476000
    49  C          0.63621000       0.98324000       0.09525000
    50  C          0.36379000       0.01676000       0.90475000
    51  C          0.53341000       0.93324000       0.12706000
    52  C          0.46659000       0.06676000       0.87294000
    53  C          0.54271000       0.96222000       0.20786000
    54  C          0.45729000       0.03778000       0.79214000
    55  C          0.65272000       0.05116000       0.26005000
    56  C          0.34728000       0.94884000       0.73995000
    57  C          0.07686000       0.14165000       0.32084000
    58  C          0.92314000       0.85835000       0.67916000
    59  C          0.09636000       0.06306000       0.26324000
    60  C          0.90364000       0.93694000       0.73676000
    61  C          0.22469000       0.01626000       0.28476000
    62  C          0.77531000       0.98374000       0.71524000
    63  C          0.33599000       0.03976000       0.36376000
    64  C          0.66401000       0.96024000       0.63624000
    65  C          0.32189000       0.12386000       0.42136000
    66  C          0.67811000       0.87614000       0.57864000
    67  C          0.19258000       0.16988000       0.40075000
    68  C          0.80742000       0.83012000       0.59925000
    69  C          0.89552000       0.22976000       0.39934000
    70  C          0.10448000       0.77024000       0.60066000
    71  C          0.88382000       0.34276000       0.42784000
    72  C          0.11618000       0.65724000       0.57216000
    73  C          0.86951000       0.35818000       0.50645000
    74  C          0.13049000       0.64182000       0.49355000
    75  C          0.86638900       0.26771000       0.55765000
    76  C          0.13361100       0.73229000       0.44235000
    77  C          0.88198800       0.15829000       0.53136000
    78  C          0.11801200       0.84171000       0.46864000
    79  C          0.89719000       0.13776000       0.45345000
    80  C          0.10281000       0.86224000       0.54655000
    81  H          0.61950000       0.49450000       0.00300000
    82  H          0.38050000       0.50550000      -0.00300000
    83  H          0.62350000       0.47500000       0.86110000
    84  H          0.37650000       0.52500000       0.13890000
    85  H          0.77740000       0.34960000       0.83330000
    86  H          0.22260000       0.65040000       0.16670000
    87  H          0.96360000       0.25390000       0.94710000
    88  H          0.03640000       0.74610000       0.05290000
    89  H          0.93800000       0.27220000       0.08940000
    90  H          0.06200000       0.72780000       0.91060000
    91  H          0.51360000       0.28120000       0.02970000
    92  H          0.48640000       0.71880000       0.97030000
    93  H          0.27650000       0.20840000       0.02470000
    94  H          0.72350000       0.79160000       0.97530000
    95  H          0.22410000       0.20860000       0.15190000
    96  H          0.77590000       0.79140000       0.84810000
    97  H          0.40420000       0.28940000       0.28590000
    98  H          0.59580000       0.71060000       0.71410000
    99  H          0.64120000       0.36740000       0.29200000
   100  H          0.35880000       0.63260000       0.70800000
   101  H          0.90840000       0.59940000       0.11210000
   102  H          0.09160000       0.40060000       0.88790000
   103  H          0.94940000       0.80320000       0.14930000
   104  H          0.05060000       0.19680000       0.85070000
   105  H          0.86610000       0.87900000       0.25490000
   106  H          0.13390000       0.12100000       0.74510000
   107  H          0.74110000       0.74630000       0.32020000
   108  H          0.25890000       0.25370000       0.67980000
   109  H          0.69120000       0.54490000       0.27780000
   110  H          0.30880000       0.45510000       0.72220000
   111  H          0.81890000       0.10630000       0.12240000
   112  H          0.18110000       0.89370000       0.87760000
   113  H          0.62990000       0.95670000       0.03630000
   114  H          0.37010000       0.04330000       0.96370000
   115  H          0.45410000       0.87120000       0.09140000
   116  H          0.54590000       0.12880000       0.90860000
   117  H          0.46860000       0.92690000       0.23040000
   118  H          0.53140000       0.07310000       0.76960000
   119  H          0.65790000       0.07520000       0.31900000
   120  H          0.34210000       0.92480000       0.68100000
   121  H          0.01600000       0.04380000       0.20560000
   122  H         -0.01600000       0.95620000       0.79440000
   123  H          0.23490000       0.95790000       0.24190000
   124  H          0.76510000       0.04210000       0.75810000
   125  H          0.42700000       0.00370000       0.38050000
   126  H          0.57300000      -0.00370000       0.61950000
   127  H          0.40370000       0.14850000       0.47780000
   128  H          0.59630000       0.85150000       0.52220000
   129  H          0.17950000       0.22610000       0.44310000
   130  H          0.82050000       0.77390000       0.55690000
   131  H          0.88420000       0.40940000       0.39070000
   132  H          0.11580000       0.59060000       0.60930000
   133  H          0.86330000       0.43970000       0.52670000
   134  H          0.13670000       0.56030000       0.47330000
   135  H          0.85140000       0.27860000       0.61290000
   136  H          0.14860000       0.72140000       0.38710000
   137  H          0.88220000       0.09040000       0.56930000
   138  H          0.11780000       0.90960000       0.43070000
   139  H          0.90850000       0.05720000       0.43470000
   140  H          0.09150000       0.94280000       0.56530000
   141  I         -0.00000000      -0.00000000      -0.00000000
   142  I          0.50000000       0.50000000       0.50000000
   143  I          0.54081000       0.34271000       0.63970000
   144  I          0.45919000       0.65729000       0.36030000
