data_DEHSIS10
_symmetry_space_group_name_H-M    'P1'
_symmetry_Int_Tables_number       1
loop_
_symmetry_equiv_pos_site_id
_symmetry_equiv_pos_as_xyz
1 x,y,z
_cell_length_a                   6.0598
_cell_length_b                   6.0598
_cell_length_c                   14.282
_cell_angle_alpha                90.0
_cell_angle_beta                 90.0
_cell_angle_gamma                90.0
loop_
_atom_site_label
_atom_site_type_symbol
_atom_site_fract_x
_atom_site_fract_y
_atom_site_fract_z
     1  N          0.03933000       0.03933000      -0.00000000
     2  N          0.46067000       0.53933000       0.25000000
     3  N          0.96067000       0.96067000       0.50000000
     4  N          0.53933000       0.46067000       0.75000000
     5  C          0.00753000       0.23234000       0.04361000
     6  C          0.26766000       0.50753000       0.29361000
     7  C         -0.00753000       0.76766000       0.54361000
     8  C          0.73234000       0.49247000       0.79361000
     9  C          0.23234000       0.00753000       0.95639000
    10  C          0.50753000       0.26766000       0.70639000
    11  C          0.76766000      -0.00753000       0.45639000
    12  C          0.49247000       0.73234000       0.20639000
    13  C          0.16374000       0.39523000       0.04461000
    14  C          0.10477000       0.66374000       0.29461000
    15  C          0.83626000       0.60477000       0.54461000
    16  C          0.89523000       0.33626000       0.79461000
    17  C          0.39523000       0.16374000       0.95539000
    18  C          0.66374000       0.10477000       0.70539000
    19  C          0.60477000       0.83626000       0.45539000
    20  C          0.33626000       0.89523000       0.20539000
    21  C          0.36114000       0.36114000      -0.00000000
    22  C          0.13886000       0.86114000       0.25000000
    23  C          0.63886000       0.63886000       0.50000000
    24  C          0.86114000       0.13886000       0.75000000
    25  H          0.86160000       0.23740000       0.07610000
    26  H          0.26260000       0.36160000       0.32610000
    27  H          0.13840000       0.76260000       0.57610000
    28  H          0.73740000       0.63840000       0.82610000
    29  H          0.23740000       0.86160000       0.92390000
    30  H          0.36160000       0.26260000       0.67390000
    31  H          0.76260000       0.13840000       0.42390000
    32  H          0.63840000       0.73740000       0.17390000
    33  H          0.12840000       0.51850000       0.07620000
    34  H         -0.01850000       0.62840000       0.32620000
    35  H          0.87160000       0.48150000       0.57620000
    36  H          0.01850000       0.37160000       0.82620000
    37  H          0.51850000       0.12840000       0.92380000
    38  H          0.62840000      -0.01850000       0.67380000
    39  H          0.48150000       0.87160000       0.42380000
    40  H          0.37160000       0.01850000       0.17380000
    41  H          0.47950000       0.47950000      -0.00000000
    42  H          0.02050000      -0.02050000       0.25000000
    43  H          0.52050000       0.52050000       0.50000000
    44  H         -0.02050000       0.02050000       0.75000000
    45  F          0.75078000       0.75078000      -0.00000000
    46  F          0.74922000       0.25078000       0.25000000
    47  F          0.24922000       0.24922000       0.50000000
    48  F          0.25078000       0.74922000       0.75000000
    49  H          0.88220000       0.88220000      -0.00000000
    50  H          0.61780000       0.38220000       0.25000000
    51  H          0.11780000       0.11780000       0.50000000
    52  H          0.38220000       0.61780000       0.75000000
