data_DEHTAL10
_symmetry_space_group_name_H-M    'P1'
_symmetry_Int_Tables_number       1
loop_
_symmetry_equiv_pos_site_id
_symmetry_equiv_pos_as_xyz
1 x,y,z
_cell_length_a                   7.4721
_cell_length_b                   6.89497
_cell_length_c                   7.3951
_cell_angle_alpha                90.0
_cell_angle_beta                 100.081
_cell_angle_gamma                90.0
loop_
_atom_site_label
_atom_site_type_symbol
_atom_site_fract_x
_atom_site_fract_y
_atom_site_fract_z
     1  N          0.29582000       0.25000000       0.46622000
     2  N          0.70418000       0.75000000       0.53378000
     3  C          0.39982000       0.25000000       0.63282000
     4  C          0.60018000       0.75000000       0.36718000
     5  C          0.32062000       0.25000000       0.78682000
     6  C          0.67938000       0.75000000       0.21318000
     7  C          0.13372000       0.25000000       0.76662000
     8  C          0.86628000       0.75000000       0.23338000
     9  C          0.02962000       0.25000000       0.59172000
    10  C          0.97038000       0.75000000       0.40828000
    11  C          0.11412000       0.25000000       0.44162000
    12  C          0.88588000       0.75000000       0.55838000
    13  H          0.52640000       0.25000000       0.63640000
    14  H          0.47360000       0.75000000       0.36360000
    15  H          0.39450000       0.25000000       0.91850000
    16  H          0.60550000       0.75000000       0.08150000
    17  H          0.08340000       0.25000000       0.87140000
    18  H          0.91660000       0.75000000       0.12860000
    19  H          0.90260000       0.25000000       0.57540000
    20  H          0.09740000       0.75000000       0.42460000
    21  H          0.05640000       0.25000000       0.31640000
    22  H          0.94360000       0.75000000       0.68360000
    23  H          0.34540000       0.25000000       0.37140000
    24  H          0.65460000       0.75000000       0.62860000
    25  F          0.62422000       0.25000000       0.33482000
    26  F          0.37578000       0.75000000       0.66518000
    27  H          0.65450000       0.25000000       0.22750000
    28  H          0.34550000       0.75000000       0.77250000
    29  F          0.75932000       0.25000000       0.06921000
    30  F          0.24068000       0.75000000       0.93079000
    31  F          0.75581000      -0.00671000       0.85169000
    32  F          0.24419000       0.49329000       0.14831000
    33  F          0.24419000       0.00671000       0.14831000
    34  F          0.75581000       0.50671000       0.85169000
    35  H          0.75030000       0.08540000       0.93170000
    36  H          0.24970000       0.58540000       0.06830000
    37  H          0.24970000       0.91460000       0.06830000
    38  H          0.75030000       0.41460000       0.93170000
