data_DEHWAS
_symmetry_space_group_name_H-M    'P1'
_symmetry_Int_Tables_number       1
loop_
_symmetry_equiv_pos_site_id
_symmetry_equiv_pos_as_xyz
1 x,y,z
_cell_length_a                   39.95444
_cell_length_b                   3.811654
_cell_length_c                   13.1623417
_cell_angle_alpha                90.0
_cell_angle_beta                 95.851011
_cell_angle_gamma                90.0
loop_
_atom_site_label
_atom_site_type_symbol
_atom_site_fract_x
_atom_site_fract_y
_atom_site_fract_z
     1  Cl         0.27530300       0.04313000       0.56422900
     2  Cl         0.27530300       0.95687000       0.06422900
     3  Cl         0.77530300       0.54313000       0.56422900
     4  Cl         0.77530300       0.45687000       0.06422900
     5  O          0.42368600       0.49598000       0.65563180
     6  O          0.42368600       0.50402000       0.15563180
     7  O          0.92368600      -0.00402000       0.65563180
     8  O          0.92368600       0.00402000       0.15563180
     9  O          0.39725700       0.60729000       0.50344180
    10  O          0.39725700       0.39271000       0.00344180
    11  O          0.89725700       0.10729000       0.50344180
    12  O          0.89725700       0.89271000       0.00344180
    13  C          0.36770700       0.68857000       0.64902000
    14  C          0.36770700       0.31143000       0.14902000
    15  C          0.86770700       0.18857000       0.64902000
    16  C          0.86770700       0.81143000       0.14902000
    17  C          0.39740800       0.59308000       0.59452000
    18  C          0.39740800       0.40692000       0.09452000
    19  C          0.89740800       0.09308000       0.59452000
    20  C          0.89740800       0.90692000       0.09452000
    21  C          0.33884800       0.80357000       0.59073000
    22  C          0.33884800       0.19643000       0.09073000
    23  C          0.83884800       0.30357000       0.59073000
    24  C          0.83884800       0.69643000       0.09073000
    25  H          0.33820000       0.81530000       0.52000000
    26  H          0.33820000       0.18470000       0.02000000
    27  H          0.83820000       0.31530000       0.52000000
    28  H          0.83820000       0.68470000       0.02000000
    29  C          0.31128800       0.89978000       0.63863000
    30  C          0.31128800       0.10022000       0.13863000
    31  C          0.81128800       0.39978000       0.63863000
    32  C          0.81128800       0.60022000       0.13863000
    33  C          0.31135900       0.88251000       0.74263000
    34  C          0.31135900       0.11749000       0.24263000
    35  C          0.81135900       0.38251000       0.74263000
    36  C          0.81135900       0.61749000       0.24263000
    37  H          0.29250000       0.94970000       0.77380000
    38  H          0.29250000       0.05030000       0.27380000
    39  H          0.79250000       0.44970000       0.77380000
    40  H          0.79250000       0.55030000       0.27380000
    41  C          0.36825800       0.66849000       0.75412000
    42  C          0.36825800       0.33151000       0.25412000
    43  C          0.86825800       0.16849000       0.75412000
    44  C          0.86825800       0.83151000       0.25412000
    45  H          0.38750000       0.59130000       0.79330000
    46  H          0.38750000       0.40870000       0.29330000
    47  H          0.88750000       0.09130000       0.79330000
    48  H          0.88750000       0.90870000       0.29330000
    49  C          0.34010100       0.76311100       0.80073000
    50  C          0.34010100       0.23688900       0.30073000
    51  C          0.84010100       0.26311100       0.80073000
    52  C          0.84010100       0.73688900       0.30073000
    53  H          0.34040000       0.74680000       0.87130000
    54  H          0.34040000       0.25320000       0.37130000
    55  H          0.84040000       0.24680000       0.87130000
    56  H          0.84040000       0.75320000       0.37130000
    57  H          0.44421500       0.48214000       0.61540000
    58  H          0.44421500       0.51786000       0.11540000
    59  H          0.94421500      -0.01786000       0.61540000
    60  H          0.94421500       0.01786000       0.11540000
    61  O          0.59008600       0.07276000       0.21476150
    62  O          0.59008600       0.92724000       0.71476150
    63  O          0.09008600       0.57276000       0.21476150
    64  O          0.09008600       0.42724000       0.71476150
    65  N          0.61365600       0.42636000       0.37536170
    66  N          0.61365600       0.57364000       0.87536170
    67  N          0.11365600       0.92636000       0.37536170
    68  N          0.11365600       0.07364000       0.87536170
    69  N          0.48479600       0.26116000       0.49483160
    70  N          0.48479600       0.73884000      -0.00516840
    71  N          0.98479600       0.76116000       0.49483160
    72  N          0.98479600       0.23884000      -0.00516840
    73  O          0.47964500       0.38907000       0.58507150
    74  O          0.47964500       0.61093000       0.08507150
    75  O          0.97964500       0.88907000       0.58507150
    76  O          0.97964500       0.11093000       0.08507150
    77  N          0.56177600       0.05586000       0.24616170
    78  N          0.56177600       0.94414000       0.74616170
    79  N          0.06177600       0.55586000       0.24616170
    80  N          0.06177600       0.44414000       0.74616170
    81  O          0.64260600       0.68548000       0.51427170
    82  O          0.64260600       0.31452000       0.01427170
    83  O          0.14260600       0.18548000       0.51427170
    84  O          0.14260600       0.81452000       0.01427170
    85  C          0.51701600       0.28766000       0.46466180
    86  C          0.51701600       0.71234000       0.96466180
    87  C          0.01701600       0.78766000       0.46466180
    88  C          0.01701600       0.21234000       0.96466180
    89  C          0.58262600       0.37066000       0.40744180
    90  C          0.58262600       0.62934000       0.90744180
    91  C          0.08262600       0.87066000       0.40744180
    92  C          0.08262600       0.12934000       0.90744180
    93  C          0.55743600       0.20176000       0.34080170
    94  C          0.55743600       0.79824000       0.84080170
    95  C          0.05743600       0.70176000       0.34080170
    96  C          0.05743600       0.29824000       0.84080170
    97  C          0.52367600       0.16256000       0.36864180
    98  C          0.52367600       0.83744000       0.86864180
    99  C          0.02367600       0.66256000       0.36864180
   100  C          0.02367600       0.33744000       0.86864180
   101  C          0.64110700       0.60437000       0.42502000
   102  C          0.64110700       0.39563000       0.92502000
   103  C          0.14110700       0.10437000       0.42502000
   104  C          0.14110700       0.89563000       0.92502000
   105  C          0.66835700       0.68957000       0.35992000
   106  C          0.66835700       0.31043000       0.85992000
   107  C          0.16835700       0.18957000       0.35992000
   108  C          0.16835700       0.81043000       0.85992000
   109  C          0.54246700       0.44627000       0.53144180
   110  C          0.54246700       0.55373000       0.03144180
   111  C          0.04246700       0.94627000       0.53144180
   112  C          0.04246700       0.05373000       0.03144180
   113  H          0.53750000       0.52430000       0.59520000
   114  H          0.53750000       0.47570000       0.09520000
   115  H          0.03750000       0.02430000       0.59520000
   116  H          0.03750000      -0.02430000       0.09520000
   117  C          0.57415700       0.48667000       0.50399190
   118  C          0.57415700       0.51333000       0.00399190
   119  C          0.07415700      -0.01333000       0.50399190
   120  C          0.07415700       0.01333000       0.00399190
   121  H          0.59050000       0.59200000       0.54920000
   122  H          0.59050000       0.40800000       0.04920000
   123  H          0.09050000       0.09200000       0.54920000
   124  H          0.09050000       0.90800000       0.04920000
   125  C          0.49726700       0.00947000       0.30402000
   126  C          0.49726700      -0.00947000       0.80402000
   127  C         -0.00273300       0.50947000       0.30402000
   128  C         -0.00273300       0.49053000       0.80402000
   129  H          0.50090000       0.92550000       0.23970000
   130  H          0.50090000       0.07450000       0.73970000
   131  H          0.00090000       0.42550000       0.23970000
   132  H          0.00090000       0.57450000       0.73970000
   133  C          0.66503700       0.65898000       0.25442000
   134  C          0.66503700       0.34102000       0.75442000
   135  C          0.16503700       0.15898000       0.25442000
   136  C          0.16503700       0.84102000       0.75442000
   137  H          0.64530000       0.56910000       0.22080000
   138  H          0.64530000       0.43090000       0.72080000
   139  H          0.14530000       0.06910000       0.22080000
   140  H          0.14530000       0.93090000       0.72080000
   141  C          0.46024700       0.11168000       0.43372000
   142  C          0.46024700       0.88832000       0.93372000
   143  C          0.96024700       0.61168000       0.43372000
   144  C          0.96024700       0.38832000       0.93372000
   145  H          0.43890000       0.09020000       0.45540000
   146  H          0.43890000       0.90980000       0.95540000
   147  H          0.93890000       0.59020000       0.45540000
   148  H          0.93890000       0.40980000       0.95540000
   149  C          0.46611800      -0.01228000       0.33832000
   150  C          0.46611800       0.01228000       0.83832000
   151  C          0.96611800       0.48772000       0.33832000
   152  C          0.96611800       0.51228000       0.83832000
   153  H          0.44850000       0.88750000       0.29650000
   154  H          0.44850000       0.11250000       0.79650000
   155  H          0.94850000       0.38750000       0.29650000
   156  H          0.94850000       0.61250000       0.79650000
   157  C          0.69812800       0.82368000       0.40923000
   158  C          0.69812800       0.17632000       0.90923000
   159  C          0.19812800       0.32368000       0.40923000
   160  C          0.19812800       0.67632000       0.90923000
   161  H          0.70070000       0.84450000       0.48000000
   162  H          0.70070000       0.15550000       0.98000000
   163  H          0.20070000       0.34450000       0.48000000
   164  H          0.20070000       0.65550000       0.98000000
   165  C          0.69106900       0.76161000       0.19853000
   166  C          0.69106900       0.23839000       0.69853000
   167  C          0.19106900       0.26161000       0.19853000
   168  C          0.19106900       0.73839000       0.69853000
   169  H          0.68880000       0.74000000       0.12780000
   170  H          0.68880000       0.26000000       0.62780000
   171  H          0.18880000       0.24000000       0.12780000
   172  H          0.18880000       0.76000000       0.62780000
   173  C          0.72029900       0.89619000       0.24883000
   174  C          0.72029900       0.10381000       0.74883000
   175  C          0.22029900       0.39619000       0.24883000
   176  C          0.22029900       0.60381000       0.74883000
   177  H          0.73770000      -0.03280000       0.21160000
   178  H          0.73770000       0.03280000       0.71160000
   179  H          0.23770000       0.46720000       0.21160000
   180  H          0.23770000       0.53280000       0.71160000
   181  C          0.72387800       0.92559000       0.35333000
   182  C          0.72387800       0.07441000       0.85333000
   183  C          0.22387800       0.42559000       0.35333000
   184  C          0.22387800       0.57441000       0.85333000
   185  H          0.74370000       0.01450000       0.38660000
   186  H          0.74370000      -0.01450000       0.88660000
   187  H          0.24370000       0.51450000       0.38660000
   188  H          0.24370000       0.48550000       0.88660000
   189  H          0.61629000       0.34710000       0.31930000
   190  H          0.61629000       0.65290000       0.81930000
   191  H          0.11629000       0.84710000       0.31930000
   192  H          0.11629000       0.15290000       0.81930000
