data_DEKCAA
_symmetry_space_group_name_H-M    'P1'
_symmetry_Int_Tables_number       1
loop_
_symmetry_equiv_pos_site_id
_symmetry_equiv_pos_as_xyz
1 x,y,z
_cell_length_a                   5.62071
_cell_length_b                   6.969912
_cell_length_c                   10.148417
_cell_angle_alpha                94.6893
_cell_angle_beta                 105.2613
_cell_angle_gamma                106.8763
loop_
_atom_site_label
_atom_site_type_symbol
_atom_site_fract_x
_atom_site_fract_y
_atom_site_fract_z
     1  I          0.10544400       0.55766300       0.27408200
     2  I          0.89455600       0.44233700       0.72591800
     3  Cl         0.91185810       0.75097150       0.39638100
     4  Cl         0.08814190       0.24902850       0.60361900
     5  O          0.28496000       0.36384000       0.14713000
     6  O          0.71504000       0.63616000       0.85287000
     7  N          0.48096000       0.13964000       0.10373000
     8  N          0.51904000       0.86036000       0.89627000
     9  C          0.63387000       0.00346000       0.14284000
    10  C          0.36613000      -0.00346000       0.85716000
    11  H          0.62690000       0.96950000       0.23160000
    12  H          0.37310000       0.03050000       0.76840000
    13  H          0.81220000       0.07180000       0.14960000
    14  H          0.18780000       0.92820000       0.85040000
    15  C          0.47087000       0.19035000       0.96526000
    16  C          0.52913000       0.80965000       0.03474000
    17  H          0.64190000       0.26720000       0.96440000
    18  H          0.35810000       0.73280000       0.03560000
    19  H          0.36010000       0.27220000       0.94310000
    20  H          0.63990000       0.72780000       0.05690000
    21  C          0.39927000       0.23945000       0.19074000
    22  C          0.60073000       0.76055000       0.80926000
    23  C          0.43958000       0.20006000       0.33684000
    24  C          0.56042000       0.79994000       0.66316000
    25  H          0.36980000       0.28590000       0.38680000
    26  H          0.63020000       0.71410000       0.61320000
    27  H          0.62630000       0.23190000       0.38320000
    28  H          0.37370000       0.76810000       0.61680000
    29  H          0.34870000       0.05650000       0.33580000
    30  H          0.65130000       0.94350000       0.66420000
