data_DEKCAX
_symmetry_space_group_name_H-M    'P1'
_symmetry_Int_Tables_number       1
loop_
_symmetry_equiv_pos_site_id
_symmetry_equiv_pos_as_xyz
1 x,y,z
_cell_length_a                   7.8573
_cell_length_b                   11.3792
_cell_length_c                   13.8313
_cell_angle_alpha                92.501
_cell_angle_beta                 101.212
_cell_angle_gamma                101.122
loop_
_atom_site_label
_atom_site_type_symbol
_atom_site_fract_x
_atom_site_fract_y
_atom_site_fract_z
     1  C          0.53813000       0.14262000       0.23012000
     2  C          0.46187000       0.85738000       0.76988000
     3  C          0.48343000       0.05172000       0.15442000
     4  C          0.51657000       0.94828000       0.84558000
     5  C          0.38843000       0.94098000       0.17072000
     6  C          0.61157000       0.05902000       0.82928000
     7  C          0.34733000       0.91968000       0.26252000
     8  C          0.65267000       0.08032000       0.73748000
     9  C          0.39823000       0.01392000       0.33652000
    10  C          0.60177000       0.98608000       0.66348000
    11  C          0.49443000       0.12572000       0.32222000
    12  C          0.50557000       0.87428000       0.67778000
    13  Cl         0.66351000       0.27591000       0.20571000
    14  Cl         0.33649000       0.72409000       0.79429000
    15  Cl         0.31731000       0.83249000       0.07221000
    16  Cl         0.68269000       0.16751000       0.92779000
    17  C          0.25613000       0.79998000       0.28622000
    18  C          0.74387000       0.20002000       0.71378000
    19  S          0.54581000       0.24041000       0.42091000
    20  S          0.45419000       0.75959000       0.57909000
    21  O          0.72892000       0.29592000       0.43371000
    22  O          0.27108000       0.70408000       0.56629000
    23  O          0.48922000       0.18302000       0.50341000
    24  O          0.51078000       0.81698000       0.49659000
    25  O          0.29273000       0.70628000       0.26232000
    26  O          0.70727000       0.29372000       0.73768000
    27  O          0.13472000       0.80888000       0.33781000
    28  O          0.86528000       0.19112000       0.66219000
    29  C          0.91567000       0.00122000       0.18372000
    30  C          0.08433000      -0.00122000       0.81628000
    31  C          0.01123000       0.09492000       0.14402000
    32  C         -0.01123000       0.90508000       0.85598000
    33  C          0.10363000       0.19622000       0.20322000
    34  C          0.89637000       0.80378000       0.79678000
    35  C          0.10473000       0.20442000       0.30442000
    36  C          0.89527000       0.79558000       0.69558000
    37  C          0.00483000       0.11072000       0.34252000
    38  C         -0.00483000       0.88928000       0.65748000
    39  C          0.90827000       0.00792000       0.28392000
    40  C          0.09173000      -0.00792000       0.71608000
    41  Cl         0.80779000       0.87829000       0.10181000
    42  Cl         0.19221000       0.12171000       0.89819000
    43  Cl         0.21341000       0.31121000       0.14691000
    44  Cl         0.78659000       0.68879000       0.85309000
    45  S          0.23271000       0.32831000       0.38691000
    46  S          0.76729000       0.67169000       0.61309000
    47  C          0.80177000       0.91078000       0.32972000
    48  C          0.19823000       0.08922000       0.67028000
    49  O          0.72737000       0.81428000       0.28932000
    50  O          0.27263000       0.18572000       0.71068000
    51  O          0.79547000       0.94378000       0.42211000
    52  O          0.20453000       0.05622000       0.57789000
    53  O          0.19662000       0.30172000       0.48301000
    54  O          0.80338000       0.69828000       0.51699000
    55  O          0.18723000       0.43642000       0.34902000
    56  O          0.81277000       0.56358000       0.65098000
    57  N          0.43463000       0.33742000       0.38101000
    58  N          0.56537000       0.66258000       0.61899000
    59  H          0.51200000       0.06700000       0.08600000
    60  H          0.48800000       0.93300000       0.91400000
    61  H          0.36500000      -0.00000000       0.40400000
    62  H          0.63500000      -0.00000000       0.59600000
    63  H          0.07800000       0.73600000       0.35700000
    64  H          0.92200000       0.26400000       0.64300000
    65  H          0.01000000       0.08900000       0.06900000
    66  H         -0.01000000       0.91100000       0.93100000
    67  H          0.00300000       0.11800000       0.41600000
    68  H         -0.00300000       0.88200000       0.58400000
    69  H          0.72000000       0.87800000       0.44300000
    70  H          0.28000000       0.12200000       0.55700000
    71  C          0.73824000       0.52752000       0.07652000
    72  C          0.26176000       0.47248000       0.92348000
    73  C          0.92315000       0.55834000       0.13153000
    74  C          0.07685000       0.44166000       0.86847000
    75  O          0.71503000       0.47392000       0.98858000
    76  O          0.28497000       0.52608000       0.01142000
    77  O          0.61553000       0.55142000       0.11081000
    78  O          0.38447000       0.44858000       0.88919000
    79  H          0.00800000       0.59700000       0.09900000
    80  H         -0.00800000       0.40300000       0.90100000
    81  H          0.97200000       0.49000000       0.14300000
    82  H          0.02800000       0.51000000       0.85700000
    83  H          0.94500000       0.61300000       0.18600000
    84  H          0.05500000       0.38700000       0.81400000
    85  O         -0.01797000       0.60042000       0.38691000
    86  O          0.01797000       0.39958000       0.61309000
    87  H          0.05100000       0.54500000       0.38500000
    88  H          0.94900000       0.45500000       0.61500000
    89  H         -0.00000000       0.61400000       0.45600000
    90  H         -0.00000000       0.38600000       0.54400000
    91  O          0.57103000       0.57742000       0.31952000
    92  O          0.42897000       0.42258000       0.68048000
    93  H          0.61600000       0.57900000       0.25500000
    94  H          0.38400000       0.42100000       0.74500000
    95  H          0.53700000       0.49100000       0.34300000
    96  H          0.46300000       0.50900000       0.65700000
    97  H          0.69400000       0.61500000       0.37100000
    98  H          0.30600000       0.38500000       0.62900000
