data_DEKYEB
_symmetry_space_group_name_H-M    'P1'
_symmetry_Int_Tables_number       1
loop_
_symmetry_equiv_pos_site_id
_symmetry_equiv_pos_as_xyz
1 x,y,z
_cell_length_a                   8.46833
_cell_length_b                   16.48915
_cell_length_c                   23.01247
_cell_angle_alpha                90.0
_cell_angle_beta                 97.6393
_cell_angle_gamma                90.0
loop_
_atom_site_label
_atom_site_type_symbol
_atom_site_fract_x
_atom_site_fract_y
_atom_site_fract_z
     1  C          0.79963000       0.77021840       0.21744110
     2  C          0.20037000       0.27021840       0.28255890
     3  C          0.20037000       0.22978160       0.78255890
     4  C          0.79963000       0.72978160       0.71744110
     5  C          0.83163000       0.81752830       0.26772120
     6  C          0.16837000       0.31752830       0.23227880
     7  C          0.16837000       0.18247170       0.73227880
     8  C          0.83163000       0.68247170       0.76772120
     9  C          0.74973000       0.88836830       0.27424120
    10  C          0.25027000       0.38836830       0.22575880
    11  C          0.25027000       0.11163170       0.72575880
    12  C          0.74973000       0.61163170       0.77424120
    13  C          0.63233000       0.91665840       0.23134120
    14  C          0.36767000       0.41665840       0.26865880
    15  C          0.36767000       0.08334160       0.76865880
    16  C          0.63233000       0.58334160       0.73134120
    17  C          0.59003000       0.86546830       0.18360110
    18  C          0.40997000       0.36546830       0.31639890
    19  C          0.40997000       0.13453170       0.81639890
    20  C          0.59003000       0.63453170       0.68360110
    21  C          0.67063000       0.79432840       0.17710110
    22  C          0.32937000       0.29432840       0.32289890
    23  C          0.32937000       0.20567160       0.82289890
    24  C          0.67063000       0.70567160       0.67710110
    25  F          0.95131190       0.79667900       0.30879700
    26  F          0.04868810       0.29667900       0.19120300
    27  F          0.04868810       0.20332100       0.69120300
    28  F          0.95131190       0.70332100       0.80879700
    29  F          0.79172000       0.93371900       0.32265700
    30  F          0.20828000       0.43371900       0.17734300
    31  F          0.20828000       0.06628100       0.67734300
    32  F          0.79172000       0.56628100       0.82265700
    33  F          0.47985180       0.88987900       0.13989700
    34  F          0.52014820       0.38987900       0.36010300
    35  F          0.52014820       0.11012100       0.86010300
    36  F          0.47985180       0.61012100       0.63989700
    37  F          0.63435180       0.75239900       0.12717700
    38  F          0.36564820       0.25239900       0.37282300
    39  F          0.36564820       0.24760100       0.87282300
    40  F          0.63435180       0.74760100       0.62717700
    41  C          0.57963000       0.00233160       0.22684110
    42  C          0.42037000       0.50233160       0.27315890
    43  C          0.42037000      -0.00233160       0.77315890
    44  C          0.57963000       0.49766840       0.72684110
    45  C          0.69523000       0.06104170       0.22301120
    46  C          0.30477000       0.56104170       0.27698880
    47  C          0.30477000       0.93895830       0.77698880
    48  C          0.69523000       0.43895830       0.72301120
    49  C          0.65723000       0.13786170       0.20285120
    50  C          0.34277000       0.63786170       0.29714880
    51  C          0.34277000       0.86213830       0.79714880
    52  C          0.65723000       0.36213830       0.70285120
    53  C          0.50043000       0.16151160       0.18540110
    54  C          0.49957000       0.66151160       0.31459890
    55  C          0.49957000       0.83848840       0.81459890
    56  C          0.50043000       0.33848840       0.68540110
    57  C          0.38383000       0.10507170       0.19379120
    58  C          0.61617000       0.60507170       0.30620880
    59  C          0.61617000       0.89492830       0.80620880
    60  C          0.38383000       0.39492830       0.69379120
    61  C          0.42213000       0.02734160       0.21363120
    62  C          0.57787000       0.52734160       0.28636880
    63  C          0.57787000       0.97265840       0.78636880
    64  C          0.42213000       0.47265840       0.71363120
    65  F          0.85012180       0.04065100       0.23324700
    66  F          0.14987820       0.54065100       0.26675300
    67  F          0.14987820       0.95934900       0.76675300
    68  F          0.85012180       0.45934900       0.73324700
    69  F          0.77747180       0.18772100       0.19419700
    70  F          0.22252820       0.68772100       0.30580300
    71  F          0.22252820       0.81227900       0.80580300
    72  F          0.77747180       0.31227900       0.69419700
    73  F          0.22970180       0.12461100       0.17964700
    74  F          0.77029820       0.62461100       0.32035300
    75  F          0.77029820       0.87538900       0.82035300
    76  F          0.22970180       0.37538900       0.67964700
    77  F          0.30368180       0.97452100       0.21726700
    78  F          0.69631820       0.47452100       0.28273300
    79  F          0.69631820       0.02547900       0.78273300
    80  F          0.30368180       0.52547900       0.71726700
    81  C          0.47503000       0.23467170       0.14810120
    82  C          0.52497000       0.73467170       0.35189880
    83  C          0.52497000       0.76532830       0.85189880
    84  C          0.47503000       0.26532830       0.64810120
    85  C          0.55083000       0.30749160       0.16313110
    86  C          0.44917000       0.80749160       0.33686890
    87  C          0.44917000       0.69250840       0.83686890
    88  C          0.55083000       0.19250840       0.66313110
    89  C          0.57813000       0.36425160       0.12159120
    90  C          0.42187000       0.86425160       0.37840880
    91  C          0.42187000       0.63574840       0.87840880
    92  C          0.57813000       0.13574840       0.62159120
    93  C          0.53453000       0.35009170       0.06190120
    94  C          0.46547000       0.85009170       0.43809880
    95  C          0.46547000       0.64990830       0.93809880
    96  C          0.53453000       0.14990830       0.56190120
    97  C          0.44113000       0.28135180       0.04788120
    98  C          0.55887000       0.78135180       0.45211880
    99  C          0.55887000       0.71864820       0.95211880
   100  C          0.44113000       0.21864820       0.54788120
   101  C          0.41183000       0.22580170       0.08946120
   102  C          0.58817000       0.72580170       0.41053880
   103  C          0.58817000       0.77419830       0.91053880
   104  C          0.41183000       0.27419830       0.58946120
   105  F          0.61234190       0.32073900       0.21901700
   106  F          0.38765810       0.82073900       0.28098300
   107  F          0.38765810       0.67926100       0.78098300
   108  F          0.61234190       0.17926100       0.71901700
   109  F          0.65952000       0.43143900       0.13917700
   110  F          0.34048000       0.93143900       0.36082300
   111  F          0.34048000       0.56856100       0.86082300
   112  F          0.65952000       0.06856100       0.63917700
   113  F          0.39712000       0.26202110       0.99155300
   114  F          0.60288000       0.76202110       0.50844700
   115  F          0.60288000       0.73797890       0.00844700
   116  F          0.39712000       0.23797890       0.49155300
   117  F          0.33932000       0.15617100       0.07137700
   118  F          0.66068000       0.65617100       0.42862300
   119  F          0.66068000       0.84382900       0.92862300
   120  F          0.33932000       0.34382900       0.57137700
   121  C          0.62083000       0.38666160       0.01601120
   122  C          0.37917000       0.88666160       0.48398880
   123  C          0.37917000       0.61333840       0.98398880
   124  C          0.62083000       0.11333840       0.51601120
   125  C          0.78593000       0.38191170       0.02397120
   126  C          0.21407000       0.88191170       0.47602880
   127  C          0.21407000       0.61808830       0.97602880
   128  C          0.78593000       0.11808830       0.52397120
   129  C          0.87243000       0.38755170       0.97754880
   130  C          0.12757000       0.88755170       0.52245120
   131  C          0.12757000       0.61244830       0.02245120
   132  C          0.87243000       0.11244830       0.47754880
   133  C          0.79823000       0.39791160       0.92062880
   134  C          0.20177000       0.89791160       0.57937120
   135  C          0.20177000       0.60208840       0.07937120
   136  C          0.79823000       0.10208840       0.42062880
   137  C          0.63553000       0.41152170       0.91349880
   138  C          0.36447000       0.91152170       0.58650120
   139  C          0.36447000       0.58847830       0.08650120
   140  C          0.63553000       0.08847830       0.41349880
   141  C          0.54863000       0.40646160       0.96006880
   142  C          0.45137000       0.90646160       0.53993120
   143  C          0.45137000       0.59353840       0.03993120
   144  C          0.54863000       0.09353840       0.46006880
   145  F          0.86440190       0.36047110       0.07610700
   146  F          0.13559810       0.86047110       0.42389300
   147  F          0.13559810       0.63952890       0.92389300
   148  F          0.86440190       0.13952890       0.57610700
   149  F          0.02962180       0.37334110       0.98716300
   150  F          0.97037820       0.87334110       0.51283700
   151  F          0.97037820       0.62665890       0.01283700
   152  F          0.02962180       0.12665890       0.48716300
   153  F          0.38970180       0.41582100       0.94978300
   154  F          0.61029820       0.91582100       0.55021700
   155  F          0.61029820       0.58417900       0.05021700
   156  F          0.38970180       0.08417900       0.44978300
   157  F          0.55951180       0.42364100       0.85942300
   158  F          0.44048820       0.92364100       0.64057700
   159  F          0.44048820       0.57635900       0.14057700
   160  F          0.55951180       0.07635900       0.35942300
   161  C          0.88463000       0.37142160       0.87149890
   162  C          0.11537000       0.87142160       0.62850110
   163  C          0.11537000       0.62857840       0.12850110
   164  C          0.88463000       0.12857840       0.37149890
   165  C          0.02803000       0.40446160       0.85986890
   166  C          0.97197000       0.90446160       0.64013110
   167  C          0.97197000       0.59553840       0.14013110
   168  C          0.02803000       0.09553840       0.35986890
   169  C          0.12333000       0.36402160       0.82526890
   170  C          0.87667000       0.86402160       0.67473110
   171  C          0.87667000       0.63597840       0.17473110
   172  C          0.12333000       0.13597840       0.32526890
   173  C          0.08493000       0.28750170       0.80260890
   174  C          0.91507000       0.78750170       0.69739110
   175  C          0.91507000       0.71249830       0.19739110
   176  C          0.08493000       0.21249830       0.30260890
   177  C          0.93713000       0.25722170       0.81169880
   178  C          0.06287000       0.75722170       0.68830120
   179  C          0.06287000       0.74277830       0.18830120
   180  C          0.93713000       0.24277830       0.31169880
   181  C          0.83893000       0.29882170       0.84411880
   182  C          0.16107000       0.79882170       0.65588120
   183  C          0.16107000       0.70117830       0.15588120
   184  C          0.83893000       0.20117830       0.34411880
   185  F          0.07737180       0.47484900       0.88438300
   186  F          0.92262820       0.97484900       0.61561700
   187  F          0.92262820       0.52515100       0.11561700
   188  F          0.07737180       0.02515100       0.38438300
   189  F          0.26267180       0.39736100       0.81649300
   190  F          0.73732820       0.89736100       0.68350700
   191  F          0.73732820       0.60263900       0.18350700
   192  F          0.26267180       0.10263900       0.31649300
   193  F          0.89417190       0.18234100       0.79290200
   194  F          0.10582810       0.68234100       0.70709800
   195  F          0.10582810       0.81765900       0.20709800
   196  F          0.89417190       0.31765900       0.29290200
   197  F          0.70270190       0.26340100       0.85426200
   198  F          0.29729810       0.76340100       0.64573800
   199  F          0.29729810       0.73659900       0.14573800
   200  F          0.70270190       0.23659900       0.35426200
   201  O          0.71631200       0.12337000       0.06954000
   202  O          0.28368800       0.62337000       0.43046000
   203  O          0.28368800       0.87663000       0.93046000
   204  O          0.71631200       0.37663000       0.56954000
   205  C          0.65881600       0.08961500       0.01256000
   206  C          0.34118400       0.58961500       0.48744000
   207  C          0.34118400       0.91038500       0.98744000
   208  C          0.65881600       0.41038500       0.51256000
   209  H          0.56258300       0.11911500      -0.00528800
   210  H          0.43741700       0.61911500       0.50528800
   211  H          0.43741700       0.88088500       0.00528800
   212  H          0.56258300       0.38088500       0.49471200
   213  H          0.63101900       0.03173200       0.01631900
   214  H          0.36898100       0.53173200       0.48368100
   215  H          0.36898100       0.96826800       0.98368100
   216  H          0.63101900       0.46826800       0.51631900
   217  C          0.79651900       0.09881400       0.97315000
   218  C          0.20348100       0.59881400       0.52685000
   219  C          0.20348100       0.90118600       0.02685000
   220  C          0.79651900       0.40118600       0.47315000
   221  H          0.82493600       0.04526700       0.95807700
   222  H          0.17506400       0.54526700       0.54192300
   223  H          0.17506400       0.95473300       0.04192300
   224  H          0.82493600       0.45473300       0.45807700
   225  H          0.76261400       0.13489400       0.93942700
   226  H          0.23738600       0.63489400       0.56057300
   227  H          0.23738600       0.86510600       0.06057300
   228  H          0.76261400       0.36510600       0.43942700
   229  C          0.93851500       0.13531300       0.01236000
   230  C          0.06148500       0.63531300       0.48764000
   231  C          0.06148500       0.86468700       0.98764000
   232  C          0.93851500       0.36468700       0.51236000
   233  H          0.96544100       0.18946600      -0.00213500
   234  H          0.03455900       0.68946600       0.50213500
   235  H          0.03455900       0.81053400       0.00213500
   236  H          0.96544100       0.31053400       0.49786500
   237  H          0.03313300       0.09974300       0.01368500
   238  H          0.96686700       0.59974300       0.48631500
   239  H          0.96686700       0.90025700       0.98631500
   240  H          0.03313300       0.40025700       0.51368500
   241  C          0.88251600       0.14181400       0.07396000
   242  C          0.11748400       0.64181400       0.42604000
   243  C          0.11748400       0.85818600       0.92604000
   244  C          0.88251600       0.35818600       0.57396000
   245  H          0.94390300       0.10350200       0.10132900
   246  H          0.05609700       0.60350200       0.39867100
   247  H          0.05609700       0.89649800       0.89867100
   248  H          0.94390300       0.39649800       0.60132900
   249  H          0.90191200       0.19742200       0.08952500
   250  H          0.09808800       0.69742200       0.41047500
   251  H          0.09808800       0.80257800       0.91047500
   252  H          0.90191200       0.30257800       0.58952500
