data_DELFEG
_symmetry_space_group_name_H-M    'P1'
_symmetry_Int_Tables_number       1
loop_
_symmetry_equiv_pos_site_id
_symmetry_equiv_pos_as_xyz
1 x,y,z
_cell_length_a                   3.76618
_cell_length_b                   17.8464
_cell_length_c                   13.3222
_cell_angle_alpha                90.0
_cell_angle_beta                 94.4303
_cell_angle_gamma                90.0
loop_
_atom_site_label
_atom_site_type_symbol
_atom_site_fract_x
_atom_site_fract_y
_atom_site_fract_z
     1  N          0.04591200       0.50000000       0.61393000
     2  N          0.95408800       0.00000000       0.38607000
     3  C          0.20861400       0.48293000       0.70524000
     4  C          0.79138600       0.98293000       0.29476000
     5  C          0.31061600       0.41004000       0.72974000
     6  C          0.68938400       0.91004000       0.27026000
     7  C          0.24541600       0.35394000       0.66104000
     8  C          0.75458400       0.85394000       0.33896000
     9  C          0.07441500       0.37094000       0.56934000
    10  C          0.92558500       0.87094000       0.43066000
    11  C         -0.01901300       0.44493000       0.54794000
    12  C          0.01901300       0.94493000       0.45206000
    13  N          0.15651200       0.61403000       0.74473000
    14  N          0.84348800       0.11403000       0.25527000
    15  C          0.27731500       0.54654000       0.77554000
    16  C          0.72268500       0.04654000       0.22446000
    17  C          0.45061600       0.54085000       0.86984000
    18  C          0.54938400       0.04085000       0.13016000
    19  C          0.50201800       0.60445000       0.92845000
    20  C          0.49798200       0.10445000       0.07155000
    21  C          0.38341700       0.67295000       0.89285000
    22  C          0.61658300       0.17295000       0.10715000
    23  C          0.20451700       0.67684000       0.79994000
    24  C          0.79548300       0.17684000       0.20006000
    25  N          0.70178700       0.53823000       0.43603000
    26  N          0.29821300       0.03823000       0.56397000
    27  C          0.80638700       0.46644000       0.44894000
    28  C          0.19361300       0.96644000       0.55106000
    29  C          0.74338400       0.41774000       0.36934000
    30  C          0.25661600       0.91774000       0.63066000
    31  C          0.58608300       0.44284000       0.27854000
    32  C          0.41391700       0.94284000       0.72146000
    33  C          0.48348200       0.51624000       0.26795000
    34  C          0.51651800       0.01624000       0.73205000
    35  C          0.54618300       0.56324000       0.34784000
    36  C          0.45381700       0.06324000       0.65216000
    37  H          0.42913000       0.40130000       0.79440000
    38  H          0.57087000       0.90130000       0.20560000
    39  H          0.31113000       0.30130000       0.67430000
    40  H          0.68887000       0.80130000       0.32570000
    41  H          0.01912000       0.33120000       0.51830000
    42  H         -0.01912000       0.83120000       0.48170000
    43  H          0.01814000       0.62130000       0.67940000
    44  H         -0.01814000       0.12130000       0.32060000
    45  H          0.53815000       0.49030000       0.89740000
    46  H          0.46185000       0.99030000       0.10260000
    47  H          0.61113000       0.60130000      -0.00760000
    48  H          0.38887000       0.10130000       0.00760000
    49  H          0.40116000       0.71930000       0.92940000
    50  H          0.59884000       0.21930000       0.07060000
    51  H          0.11615000       0.72330000       0.77040000
    52  H          0.88385000       0.22330000       0.22960000
    53  H          0.69286000       0.57630000       0.49240000
    54  H          0.30714000       0.07630000       0.50760000
    55  H          0.82186000       0.36630000       0.37940000
    56  H          0.17814000       0.86630000       0.62060000
    57  H          0.53585000       0.40730000       0.22840000
    58  H          0.46415000       0.90730000       0.77160000
    59  H          0.37085000       0.53130000       0.20040000
    60  H          0.62915000       0.03130000       0.79960000
    61  H          0.47087000       0.61430000       0.35140000
    62  H          0.52913000       0.11430000       0.64860000
    63  N          0.59528400       0.70984000       0.56094000
    64  N          0.40471600       0.20984000       0.43906000
    65  O          0.71638800       0.64473000       0.57873000
    66  O          0.28361200       0.14473000       0.42127000
    67  O          0.64948600       0.75853000       0.62534000
    68  O          0.35051400       0.25853000       0.37466000
    69  O          0.42518400       0.71993000       0.47964000
    70  O          0.57481600       0.21993000       0.52036000
    71  N          0.95958400       0.20764000       0.84644000
    72  N          0.04041600       0.70764000       0.15356000
    73  O          0.09561400       0.24054000       0.92823000
    74  O          0.90438600       0.74054000       0.07177000
    75  O          0.77348600       0.24364000       0.78743000
    76  O          0.22651400       0.74364000       0.21257000
    77  O          0.03951400       0.14264000       0.83774000
    78  O         -0.03951400       0.64264000       0.16226000
    79  H          0.02317000       0.29350000       0.93740000
    80  H         -0.02317000       0.79350000       0.06260000
    81  N         -0.01191500       0.39324000       0.03484000
    82  N          0.01191500       0.89324000       0.96516000
    83  O          0.10441500       0.34583000       0.09533000
    84  O          0.89558500       0.84583000       0.90467000
    85  O          0.94408500       0.45854000       0.05643000
    86  O          0.05591500       0.95854000       0.94357000
    87  O          0.90828700       0.37263000       0.94323000
    88  O          0.09171300       0.87263000       0.05677000
