data_DELFOQ
_symmetry_space_group_name_H-M    'P1'
_symmetry_Int_Tables_number       1
loop_
_symmetry_equiv_pos_site_id
_symmetry_equiv_pos_as_xyz
1 x,y,z
_cell_length_a                   14.9704
_cell_length_b                   10.7971
_cell_length_c                   9.3805
_cell_angle_alpha                92.956
_cell_angle_beta                 91.393
_cell_angle_gamma                106.024
loop_
_atom_site_label
_atom_site_type_symbol
_atom_site_fract_x
_atom_site_fract_y
_atom_site_fract_z
     1  N          0.07244000       0.28845000       0.66036000
     2  N          0.92756000       0.71155000       0.33964000
     3  C         -0.01225000       0.30487000       0.64007000
     4  C          0.01225000       0.69513000       0.35993000
     5  C          0.97123000       0.42448000       0.65888000
     6  C          0.02877000       0.57552000       0.34112000
     7  C          0.04376000       0.52978000       0.69728000
     8  C          0.95624000       0.47022000       0.30272000
     9  C          0.13016000       0.51298000       0.71738000
    10  C          0.86984000       0.48702000       0.28262000
    11  C          0.14245000       0.39187000       0.69817000
    12  C          0.85755000       0.60813000       0.30183000
    13  N          0.93186000       0.07296000       0.61696000
    14  N          0.06814000       0.92704000       0.38304000
    15  C          0.91185000       0.18567000       0.60247000
    16  C          0.08815000       0.81433000       0.39753000
    17  C          0.82284000       0.17961000       0.55639000
    18  C          0.17716000       0.82039000       0.44361000
    19  C          0.75664000       0.06281000       0.53129000
    20  C          0.24336000       0.93719000       0.46871000
    21  C          0.78134000       0.95188900       0.55189000
    22  C          0.21866000       0.04811100       0.44811000
    23  C          0.86995000       0.95682000       0.59128000
    24  C          0.13005000       0.04318000       0.40872000
    25  N          0.23534000       0.25036000       0.75686000
    26  N          0.76466000       0.74964000       0.24314000
    27  C          0.23445000       0.36846000       0.71957000
    28  C          0.76555000       0.63154000       0.28043000
    29  C          0.31765000       0.45728000       0.70338000
    30  C          0.68235000       0.54272000       0.29662000
    31  C          0.39926000       0.42448000       0.72389000
    32  C          0.60074000       0.57552000       0.27611000
    33  C          0.39805000       0.30428000       0.76298000
    34  C          0.60195000       0.69572000       0.23702000
    35  C          0.31406000       0.21749000       0.78149000
    36  C          0.68594000       0.78251000       0.21851000
    37  H          0.92060000       0.43260000       0.64160000
    38  H          0.07940000       0.56740000       0.35840000
    39  H          0.03260000       0.61480000       0.71790000
    40  H          0.96740000       0.38520000       0.28210000
    41  H          0.17640000       0.57660000       0.73360000
    42  H          0.82360000       0.42340000       0.26640000
    43  H         -0.01040000       0.06950000       0.65150000
    44  H          0.01040000       0.93050000       0.34850000
    45  H          0.80660000       0.25160000       0.54360000
    46  H          0.19340000       0.74840000       0.45640000
    47  H          0.69950000       0.06560000       0.50160000
    48  H          0.30050000       0.93440000       0.49840000
    49  H          0.74450000       0.88140000       0.53760000
    50  H          0.25550000       0.11860000       0.46240000
    51  H          0.89150000       0.88530000       0.60480000
    52  H          0.10850000       0.11470000       0.39520000
    53  H          0.18540000       0.20050000       0.76450000
    54  H          0.81460000       0.79950000       0.23550000
    55  H          0.31950000       0.53570000       0.66970000
    56  H          0.68050000       0.46430000       0.33030000
    57  H          0.45850000       0.48870000       0.70180000
    58  H          0.54150000       0.51130000       0.29820000
    59  H          0.46570000       0.28890000       0.78710000
    60  H          0.53430000       0.71110000       0.21290000
    61  H          0.30650000       0.15070000       0.80670000
    62  H          0.69350000       0.84930000       0.19330000
    63  O          0.08673000       0.03075000       0.74515000
    64  O          0.91327000       0.96925000       0.25485000
    65  O          0.01044000       0.82235000       0.72625000
    66  O         -0.01044000       0.17765000       0.27375000
    67  C          0.06465000       0.91783000       0.78357000
    68  C          0.93535000       0.08217000       0.21643000
    69  C          0.11625000       0.89763000       0.92337000
    70  C          0.88375000       0.10237000       0.07663000
    71  Cl         0.14484160       0.03762000       0.04122000
    72  Cl         0.85515840       0.96238000       0.95878000
    73  Cl         0.22265140       0.86668000       0.87132000
    74  Cl         0.77734860       0.13332000       0.12868000
    75  Cl         0.05190160       0.76688000       0.01402000
    76  Cl         0.94809840       0.23312000      -0.01402000
    77  O          0.58104000       0.25166000       0.42356000
    78  O          0.41896000       0.74834000       0.57644000
    79  O          0.43165000       0.21198000       0.43948000
    80  O          0.56835000       0.78802000       0.56052000
    81  C          0.49906000       0.20288000       0.38048000
    82  C          0.50094000       0.79712000       0.61952000
    83  C          0.48835000       0.12278000       0.23828000
    84  C          0.51165000       0.87722000       0.76172000
    85  Cl         0.37530160       0.07603000       0.16633000
    86  Cl         0.62469840       0.92397000       0.83367000
    87  Cl         0.56123180       0.20753000       0.11163000
    88  Cl         0.43876820       0.79247000       0.88837000
    89  Cl         0.52303000       0.98277000       0.27414000
    90  Cl         0.47697000       0.01723000       0.72586000
    91  O          0.60974000       0.38307000       0.64887000
    92  O          0.39026000       0.61693000       0.35113000
    93  O          0.75414000       0.44876000       0.58006000
    94  O          0.24586000       0.55124000       0.41994000
    95  C          0.69395000       0.44167000       0.66468000
    96  C          0.30605000       0.55833000       0.33532000
    97  C          0.72085000       0.51128000       0.81268000
    98  C          0.27915000       0.48872000       0.18732000
    99  Cl         0.82305190       0.63593000       0.81294000
   100  Cl         0.17694810       0.36407000       0.18706000
   101  Cl         0.63392000       0.56134000       0.89333000
   102  Cl         0.36608000       0.43866000       0.10667000
   103  Cl         0.74873000       0.39203000       0.91953000
   104  Cl         0.25127000       0.60797000       0.08047000
   105  H          0.60010000       0.33614000       0.57716000
   106  H          0.39990000       0.66386000       0.42284000
