data_DELGEG
_symmetry_space_group_name_H-M    'P1'
_symmetry_Int_Tables_number       1
loop_
_symmetry_equiv_pos_site_id
_symmetry_equiv_pos_as_xyz
1 x,y,z
_cell_length_a                   11.2842
_cell_length_b                   21.8665
_cell_length_c                   7.8361
_cell_angle_alpha                90.0
_cell_angle_beta                 90.0
_cell_angle_gamma                99.322
loop_
_atom_site_label
_atom_site_type_symbol
_atom_site_fract_x
_atom_site_fract_y
_atom_site_fract_z
     1  S          0.16561000       0.57991000       0.32712000
     2  S          0.33439000       0.92009000       0.82712000
     3  S          0.83439000       0.42009000       0.67288000
     4  S          0.66561000       0.07991000       0.17288000
     5  O          0.20303000       0.53311000       0.45394000
     6  O          0.29697000       0.96689000       0.95394000
     7  O          0.79697000       0.46689000       0.54606000
     8  O          0.70303000       0.03311000       0.04606000
     9  C          0.27373000       0.64742000       0.34645000
    10  C          0.22627000       0.85258000       0.84645000
    11  C          0.72627000       0.35258000       0.65355000
    12  C          0.77373000       0.14742000       0.15355000
    13  C          0.04183000       0.60492000       0.42985000
    14  C          0.45817000       0.89508000       0.92985000
    15  C          0.95817000       0.39508000       0.57015000
    16  C          0.54183000       0.10492000       0.07015000
    17  H          0.01950000       0.56540000       0.44110000
    18  H          0.48050000       0.93460000       0.94110000
    19  H          0.98050000       0.43460000       0.55890000
    20  H          0.51950000       0.06540000       0.05890000
    21  H          0.27260000       0.65240000       0.46430000
    22  H          0.22740000       0.84760000       0.96430000
    23  H          0.72740000       0.34760000       0.53570000
    24  H          0.77260000       0.15240000       0.03570000
    25  H          0.07730000       0.62270000       0.54750000
    26  H          0.42270000       0.87730000       0.04750000
    27  H          0.92270000       0.37730000       0.45250000
    28  H          0.57730000       0.12270000       0.95250000
    29  H          0.02450000       0.63250000       0.34520000
    30  H          0.47550000       0.86750000       0.84520000
    31  H          0.97550000       0.36750000       0.65480000
    32  H          0.52450000       0.13250000       0.15480000
    33  H          0.25010000       0.67890000       0.24820000
    34  H          0.24990000       0.82110000       0.74820000
    35  H          0.74990000       0.32110000       0.75180000
    36  H          0.75010000       0.17890000       0.25180000
    37  H          0.35190000       0.63400000       0.29420000
    38  H          0.14810000       0.86600000       0.79420000
    39  H          0.64810000       0.36600000       0.70580000
    40  H          0.85190000       0.13400000       0.20580000
    41  O          0.26762000       0.34272000       0.59203000
    42  O          0.23238000       0.15728000       0.09203000
    43  O          0.73238000       0.65728000       0.40797000
    44  O          0.76762000       0.84272000       0.90797000
    45  O          0.43952000       0.33281000       0.49173000
    46  O          0.06048000       0.16719000      -0.00827000
    47  O          0.56048000       0.66719000       0.50827000
    48  O          0.93952000       0.83281000       0.00827000
    49  O          0.92958000       0.28622000       0.21674000
    50  O          0.57042000       0.21378000       0.71674000
    51  O          0.07042000       0.71378000       0.78326000
    52  O          0.42958000       0.78622000       0.28326000
    53  O          0.94998000       0.30651000       0.94987000
    54  O          0.55002000       0.19349000       0.44987000
    55  O          0.05002000       0.69349000       0.05013000
    56  O          0.44998000       0.80651000       0.55013000
    57  O          0.45882000       0.25971000       0.13114000
    58  O          0.04118000       0.24029000       0.63114000
    59  O          0.54118000       0.74029000       0.86886000
    60  O          0.95882000       0.75971000       0.36886000
    61  O          0.64002000       0.26211000       0.06025000
    62  O          0.85998000       0.23789000       0.56025000
    63  O          0.35998000       0.73789000       0.93975000
    64  O          0.14002000       0.76211000       0.43975000
    65  O          0.87962000       0.52901000       0.15205000
    66  O          0.62038000       0.97099000       0.65205000
    67  O          0.12038000       0.47099000       0.84795000
    68  O          0.37962000       0.02901000       0.34795000
    69  O          0.93582000       0.43931000       0.15474000
    70  O          0.56418000       0.06069000       0.65474000
    71  O          0.06418000       0.56069000       0.84526000
    72  O          0.43582000       0.93931000       0.34526000
    73  O          0.35642000       0.46851000       0.36984000
    74  O          0.14358000       0.03149000       0.86984000
    75  O          0.64358000       0.53149000       0.63016000
    76  O          0.85642000       0.96851000       0.13016000
    77  O          0.44962000       0.54501000       0.20794000
    78  O          0.05038000       0.95499000       0.70794000
    79  O          0.55038000       0.45499000       0.79206000
    80  O          0.94962000       0.04501000       0.29206000
    81  N          0.33563000       0.33871000       0.47434000
    82  N          0.16437000       0.16129000       0.97434000
    83  N          0.66437000       0.66129000       0.52566000
    84  N          0.83563000       0.83871000       0.02566000
    85  N         -0.00943000       0.30292000       0.09195000
    86  N          0.50943000       0.19708000       0.59195000
    87  N          0.00943000       0.69708000       0.90805000
    88  N          0.49057000       0.80292000       0.40805000
    89  N          0.55872000       0.28741000       0.10914000
    90  N          0.94128000       0.21259000       0.60914000
    91  N          0.44128000       0.71259000       0.89086000
    92  N          0.05872000       0.78741000       0.39086000
    93  N          0.85973000       0.47282000       0.15664000
    94  N          0.64027000       0.02718000       0.65664000
    95  N          0.14027000       0.52718000       0.84336000
    96  N          0.35973000       0.97282000       0.34336000
    97  C          0.49343000       0.38772000       0.18245000
    98  C          0.00657000       0.11228000       0.68245000
    99  C          0.50657000       0.61228000       0.81755000
   100  C         -0.00657000       0.88772000       0.31755000
   101  C          0.58503000       0.35441000       0.14244000
   102  C          0.91497000       0.14559000       0.64244000
   103  C          0.41497000       0.64559000       0.85756000
   104  C          0.08503000       0.85441000       0.35756000
   105  C          0.70453000       0.38092000       0.13444000
   106  C          0.79547000       0.11908000       0.63444000
   107  C          0.29547000       0.61908000       0.86556000
   108  C          0.20453000       0.88092000       0.36556000
   109  C          0.73203000       0.44292000       0.16434000
   110  C          0.76797000       0.05708000       0.66434000
   111  C          0.26797000       0.55708000       0.83566000
   112  C          0.23203000       0.94292000       0.33566000
   113  C          0.64733000       0.47851000       0.20494000
   114  C          0.85267000       0.02149000       0.70494000
   115  C          0.35267000       0.52149000       0.79506000
   116  C          0.14733000       0.97851000       0.29506000
   117  C          0.52753000       0.45102000       0.21684000
   118  C          0.97247000       0.04898000       0.71684000
   119  C          0.47247000       0.54898000       0.78316000
   120  C          0.02753000       0.95102000       0.28316000
   121  C          0.36323000       0.36062000       0.16605000
   122  C          0.13677000       0.13938000       0.66605000
   123  C          0.63677000       0.63938000       0.83395000
   124  C          0.86323000       0.86062000       0.33395000
   125  C          0.31283000       0.36012000       0.00524000
   126  C          0.18717000       0.13988000       0.50524000
   127  C          0.68717000       0.63988000      -0.00524000
   128  C          0.81283000       0.86012000       0.49476000
   129  C          0.19163000       0.34052000       0.97796000
   130  C          0.30837000       0.15948000       0.47796000
   131  C          0.80837000       0.65948000       0.02204000
   132  C          0.69163000       0.84052000       0.52204000
   133  C          0.12063000       0.32192000       0.11754000
   134  C          0.37937000       0.17808000       0.61754000
   135  C          0.87937000       0.67808000       0.88246000
   136  C          0.62063000       0.82192000       0.38246000
   137  C          0.16553000       0.32062000       0.27984000
   138  C          0.33447000       0.17938000       0.77984000
   139  C          0.83447000       0.67938000       0.72016000
   140  C          0.66553000       0.82062000       0.22016000
   141  C          0.28753000       0.34012000       0.30084000
   142  C          0.21247000       0.15988000       0.80084000
   143  C          0.71247000       0.65988000       0.69916000
   144  C          0.78753000       0.84012000       0.19916000
   145  C          0.43923000       0.49321000       0.26254000
   146  C          0.06077000       0.00679000       0.76254000
   147  C          0.56077000       0.50679000       0.73746000
   148  C          0.93923000       0.99321000       0.23746000
   149  H          0.76250000       0.35730000       0.11130000
   150  H          0.73750000       0.14270000       0.61130000
   151  H          0.23750000       0.64270000       0.88870000
   152  H          0.26250000       0.85730000       0.38870000
   153  H          0.66720000       0.52240000       0.23090000
   154  H          0.83280000       0.97760000       0.73090000
   155  H          0.33280000       0.47760000       0.76910000
   156  H          0.16720000       0.02240000       0.26910000
   157  H          0.36240000       0.37500000       0.91190000
   158  H          0.13760000       0.12500000       0.41190000
   159  H          0.63760000       0.62500000       0.08810000
   160  H          0.86240000       0.87500000       0.58810000
   161  H          0.16200000       0.34150000       0.86610000
   162  H          0.33800000       0.15850000       0.36610000
   163  H          0.83800000       0.65850000       0.13390000
   164  H          0.66200000       0.84150000       0.63390000
   165  H          0.11910000       0.30820000       0.37510000
   166  H          0.38090000       0.19180000       0.87510000
   167  H          0.88090000       0.69180000       0.62490000
   168  H          0.61910000       0.80820000       0.12490000
