data_DENMIT
_symmetry_space_group_name_H-M    'P1'
_symmetry_Int_Tables_number       1
loop_
_symmetry_equiv_pos_site_id
_symmetry_equiv_pos_as_xyz
1 x,y,z
_cell_length_a                   7.97514
_cell_length_b                   12.37036
_cell_length_c                   12.73456
_cell_angle_alpha                105.83201
_cell_angle_beta                 97.48701
_cell_angle_gamma                96.49201
loop_
_atom_site_label
_atom_site_type_symbol
_atom_site_fract_x
_atom_site_fract_y
_atom_site_fract_z
     1  C          0.87608000       0.64049140       0.46321140
     2  C          0.12392000       0.35950860       0.53678860
     3  H          0.81470000       0.56710000       0.45350000
     4  H          0.18530000       0.43290000       0.54650000
     5  C          0.91278000       0.66948140       0.37015140
     6  C          0.08722000       0.33051860       0.62984860
     7  H          0.87700000       0.61640000       0.29880000
     8  H          0.12300000       0.38360000       0.70120000
     9  C          0.00268190       0.77687130       0.38129130
    10  C         -0.00268190       0.22312870       0.61870870
    11  C          0.05252000       0.84979140       0.48952130
    12  C          0.94748000       0.15020860       0.51047870
    13  H          0.11490000       0.92360000       0.50220000
    14  H          0.88510000       0.07640000       0.49780000
    15  C          0.01002000       0.81356140       0.57745140
    16  C         -0.01002000       0.18643860       0.42254860
    17  H          0.04460000       0.86430000       0.65000000
    18  H          0.95540000       0.13570000       0.35000000
    19  C          0.04022000       0.80521130       0.28187130
    20  C          0.95978000       0.19478870       0.71812870
    21  H          0.00110000       0.74740000       0.21370000
    22  H         -0.00110000       0.25260000       0.78630000
    23  C          0.12322000       0.90294140       0.27535130
    24  C          0.87678000       0.09705860       0.72464870
    25  H          0.15990000       0.96290000       0.34220000
    26  H          0.84010000       0.03710000       0.65780000
    27  C          0.16132000       0.92412130       0.17277130
    28  C          0.83868000       0.07587870       0.82722870
    29  C          0.14632000       0.83548130       0.07442140
    30  C          0.85368000       0.16451870       0.92557860
    31  H          0.11140000       0.75940000       0.07410000
    32  H          0.88860000       0.24060000       0.92590000
    33  C          0.18132000       0.85687140       0.97813860
    34  C          0.81868000       0.14312860       0.02186140
    35  H          0.16940000       0.79560000       0.91230000
    36  H          0.83060000       0.20440000       0.08770000
    37  C          0.23392000       0.96783140       0.97677870
    38  C          0.76608000       0.03216860       0.02322130
    39  C          0.25292000       0.05699140       0.07371130
    40  C          0.74708000       0.94300860       0.92628870
    41  H          0.29040000       0.13280000       0.07420000
    42  H          0.70960000       0.86720000       0.92580000
    43  C          0.21662000       0.03389140       0.16989130
    44  C          0.78338000       0.96610860       0.83010870
    45  H          0.23010000       0.09510000       0.23590000
    46  H          0.76990000       0.90490000       0.76410000
    47  C          0.33282000       0.08824140       0.87076870
    48  C          0.66718000       0.91175860       0.12923130
    49  H          0.44360000       0.11720000       0.92150000
    50  H          0.55640000       0.88280000       0.07850000
    51  H          0.25310000       0.14330000       0.89120000
    52  H          0.74690000       0.85670000       0.10880000
    53  C          0.35702000       0.07125140       0.75178870
    54  C          0.64298000       0.92874860       0.24821130
    55  H          0.24440000       0.04240000       0.70310000
    56  H          0.75560000       0.95760000       0.29690000
    57  H          0.43150000       0.01250000       0.73220000
    58  H          0.56850000      -0.01250000       0.26780000
    59  C          0.43572000       0.17911130       0.72944880
    60  C          0.56428000       0.82088870       0.27055120
    61  H          0.55180000       0.20560000       0.77400000
    62  H          0.44820000       0.79440000       0.22600000
    63  H          0.36520000       0.23960000       0.75240000
    64  H          0.63480000       0.76040000       0.24760000
    65  C          0.44692000       0.15821140       0.60697870
    66  C          0.55308000       0.84178860       0.39302130
    67  H          0.51120000       0.09430000       0.58390000
    68  H          0.48880000       0.90570000       0.41610000
    69  H          0.32960000       0.13480000       0.56360000
    70  H          0.67040000       0.86520000       0.43640000
    71  C          0.53252000       0.26048130       0.57850880
    72  C          0.46748000       0.73951870       0.42149120
    73  H          0.65190000       0.28200000       0.61870000
    74  H          0.34810000       0.71800000       0.38130000
    75  H          0.47130000       0.32560000       0.60380000
    76  H          0.52870000       0.67440000       0.39620000
    77  C          0.53382000       0.23681140       0.45483870
    78  C          0.46618000       0.76318860       0.54516130
    79  H          0.58900000       0.16880000       0.42920000
    80  H          0.41100000       0.83120000       0.57080000
    81  H          0.41410000       0.21890000       0.41540000
    82  H          0.58590000       0.78110000       0.58460000
    83  C          0.62642000       0.33465140       0.42344860
    84  C          0.37358000       0.66534860       0.57655140
    85  H          0.74280000       0.35780000       0.46800000
    86  H          0.25720000       0.64220000       0.53200000
    87  H          0.56430000       0.40050000       0.44160000
    88  H          0.43570000       0.59950000       0.55840000
    89  C          0.64032000       0.30355170       0.30105850
    90  C          0.35968000       0.69644830       0.69894150
    91  H          0.70240000       0.23870000       0.28270000
    92  H          0.29760000       0.76130000       0.71730000
    93  H          0.70220000       0.36870000       0.28510000
    94  H          0.29780000       0.63130000       0.71490000
    95  H          0.52530000       0.28320000       0.25650000
    96  H          0.47470000       0.71680000       0.74350000
    97  N          0.92260820       0.71057120       0.56596120
    98  N          0.07739180       0.28942880       0.43403880
    99  O          0.26324160       0.97859100       0.87696100
   100  O          0.73675840       0.02140900       0.12303900
   101  C          0.80778000       0.53593140       0.85741130
   102  C          0.19222000       0.46406860       0.14258870
   103  C          0.63078000       0.54747120       0.89114120
   104  C          0.36922000       0.45252880       0.10885880
   105  C          0.59408000       0.50163130      -0.01061880
   106  C          0.40592000       0.49836870       0.01061880
   107  F          0.82002850       0.42412900       0.82134900
   108  F          0.17997150       0.57587100       0.17865100
   109  F          0.92918860       0.58231100       0.94813900
   110  F          0.07081140       0.41768900       0.05186100
   111  F          0.51177870       0.49294900       0.80174800
   112  F          0.48822130       0.50705100       0.19825200
   113  F          0.61547860       0.65848800       0.92061900
   114  F          0.38452140       0.34151200       0.07938100
   115  F          0.63283850       0.39615900       0.97158900
   116  F          0.36716150       0.60384100       0.02841100
   117  F          0.69790860       0.56991100       0.08105800
   118  F          0.30209140       0.43008900       0.91894200
   119  I          0.85289088       0.61612580       0.73025880
   120  I          0.14710912       0.38387420       0.26974120
