data_DEPBUZ
_symmetry_space_group_name_H-M    'P1'
_symmetry_Int_Tables_number       1
loop_
_symmetry_equiv_pos_site_id
_symmetry_equiv_pos_as_xyz
1 x,y,z
_cell_length_a                   8.6133
_cell_length_b                   15.5096
_cell_length_c                   14.8755
_cell_angle_alpha                90.0
_cell_angle_beta                 93.34911
_cell_angle_gamma                90.0
loop_
_atom_site_label
_atom_site_type_symbol
_atom_site_fract_x
_atom_site_fract_y
_atom_site_fract_z
     1  I          0.26077300       0.96817200      -0.00448083
     2  I          0.73922700       0.46817200       0.00448083
     3  I          0.07326400       0.89344200       0.36715918
     4  I          0.92673600       0.39344200       0.63284082
     5  I          0.20291300       0.93333218       0.77449200
     6  I          0.79708700       0.43333218       0.22550800
     7  I          0.14706400       0.90516119       0.58740200
     8  I          0.85293600       0.40516119       0.41259800
     9  P          0.48268900       0.25791500       0.79008500
    10  P          0.51731100       0.75791500       0.20991500
    11  P          0.47123900       0.60871500       0.71756500
    12  P          0.52876100       0.10871500       0.28243500
    13  C          0.58904000       0.35732000       0.78332000
    14  C          0.41096000       0.85732000       0.21668000
    15  H          0.65020000       0.36610000       0.83940000
    16  H          0.34980000       0.86610000       0.16060000
    17  H          0.66030000       0.35280000       0.73540000
    18  H          0.33970000       0.85280000       0.26460000
    19  C          0.33974000       0.27262000       0.87162000
    20  C          0.66026000       0.77262000       0.12838000
    21  C          0.61654000       0.17432000       0.82482000
    22  C          0.38346000       0.67432000       0.17518000
    23  C          0.56184000       0.09882000       0.86163000
    24  C          0.43816000       0.59882000       0.13837000
    25  H          0.45590000       0.09170000       0.86830000
    26  H          0.54410000       0.59170000       0.13170000
    27  C          0.59564000       0.70132000       0.72452000
    28  C          0.40436000       0.20132000       0.27548000
    29  C          0.53004000       0.78302000       0.71732000
    30  C          0.46996000       0.28302000       0.28268000
    31  H          0.42250000       0.78910000       0.71080000
    32  H          0.57750000       0.28910000       0.28920000
    33  C          0.75584000       0.69282000       0.73253000
    34  C          0.24416000       0.19282000       0.26747000
    35  H          0.80100000       0.63840000       0.73710000
    36  H          0.19900000       0.13840000       0.26290000
    37  C          0.22989000       0.19335000       0.52264000
    38  C          0.77011000       0.69335000       0.47736000
    39  H          0.17510000       0.18080000       0.46840000
    40  H          0.82490000       0.68080000       0.53160000
    41  C          0.34761000       0.25315000       0.52413000
    42  C          0.65239000       0.75315000       0.47587000
    43  H          0.37350000       0.27970000       0.47100000
    44  H          0.62650000       0.77970000       0.52900000
    45  C          0.42897000       0.27403000       0.60553000
    46  C          0.57103000       0.77403000       0.39447000
    47  H          0.50920000       0.31420000       0.60710000
    48  H          0.49080000       0.81420000       0.39290000
    49  C          0.38714000       0.23362000       0.68332000
    50  C          0.61286000       0.73362000       0.31668000
    51  C          0.48334000       0.43552000       0.76542000
    52  C          0.51666000       0.93552000       0.23458000
    53  H          0.41880000       0.42640000       0.71060000
    54  H          0.58120000       0.92640000       0.28940000
    55  H          0.41560000       0.44260000       0.81480000
    56  H          0.58440000       0.94260000       0.18520000
    57  C          0.58194000       0.51642000       0.75612000
    58  C          0.41806000       0.01642000       0.24388000
    59  H          0.66130000       0.50480000       0.71410000
    60  H          0.33870000       0.00480000       0.28590000
    61  H          0.63390000       0.52970000       0.81400000
    62  H          0.36610000       0.02970000       0.18600000
    63  C          0.31014000       0.62222000       0.78792000
    64  C          0.68986000       0.12222000       0.21208000
    65  C          0.18154000       0.56782000       0.77443000
    66  C          0.81846000       0.06782000       0.22557000
    67  H          0.17340000       0.53120000       0.72480000
    68  H          0.82660000       0.03120000       0.27520000
    69  C          0.06615000       0.56883000       0.83553000
    70  C          0.93385000       0.06883000       0.16447000
    71  H          0.98250000       0.53090000       0.82880000
    72  H          0.01750000       0.03090000       0.17120000
    73  C          0.07635000       0.62633000       0.90633000
    74  C          0.92365000       0.12633000       0.09367000
    75  H         -0.00210000       0.62710000       0.94670000
    76  H          0.00210000       0.12710000       0.05330000
    77  C          0.31108000       0.58175000       0.42233000
    78  C          0.68892000       0.08175000       0.57767000
    79  H          0.27760000       0.57610000       0.36200000
    80  H          0.72240000       0.07610000       0.63800000
    81  C          0.43387000       0.53284000       0.45663000
    82  C          0.56613000       0.03284000       0.54337000
    83  H          0.48610000       0.49640000       0.41890000
    84  H          0.51390000      -0.00360000       0.58110000
    85  C          0.47996000       0.53763000       0.54783000
    86  C          0.52004000       0.03763000       0.45217000
    87  H          0.56170000       0.50400000       0.57170000
    88  H          0.43830000       0.00400000       0.42830000
    89  C          0.40214000       0.59342000       0.60262000
    90  C          0.59786000       0.09342000       0.39738000
    91  C          0.38295000       0.26193000       0.96233000
    92  C          0.61705000       0.76193000       0.03767000
    93  H          0.48090000       0.24070000       0.98010000
    94  H          0.51910000       0.74070000       0.01990000
    95  C          0.27886000       0.28314000       0.02543000
    96  C          0.72114000       0.78314000       0.97457000
    97  H          0.30570000       0.27380000       0.08610000
    98  H          0.69430000       0.77380000       0.91390000
    99  C          0.13635000       0.31753000       0.00053000
   100  C          0.86365000       0.81753000      -0.00053000
   101  H          0.06850000       0.33300000       0.04410000
   102  H          0.93150000       0.83300000       0.95590000
   103  C          0.09475000       0.32883000       0.91233000
   104  C          0.90525000       0.82883000       0.08767000
   105  H         -0.00280000       0.35150000       0.89580000
   106  H          0.00280000       0.85150000       0.10420000
   107  C          0.19474000       0.30723000       0.84573000
   108  C          0.80526000       0.80723000       0.15427000
   109  H          0.16540000       0.31570000       0.78520000
   110  H          0.83460000       0.81570000       0.21480000
   111  C          0.66475000       0.03392000       0.88823000
   112  C          0.33525000       0.53392000       0.11177000
   113  H          0.62790000       0.98390000       0.91410000
   114  H          0.37210000       0.48390000       0.08590000
   115  C          0.82105000       0.04303000       0.87663000
   116  C          0.17895000       0.54303000       0.12337000
   117  H          0.88970000      -0.00080000       0.89460000
   118  H          0.11030000       0.49920000       0.10540000
   119  C          0.87575000       0.11683000       0.83823000
   120  C          0.12425000       0.61683000       0.16177000
   121  H          0.98130000       0.12220000       0.82950000
   122  H          0.01870000       0.62220000       0.17050000
   123  C          0.77484000       0.18383000       0.81233000
   124  C          0.22516000       0.68383000       0.18767000
   125  H          0.81240000       0.23400000       0.78720000
   126  H          0.18760000       0.73400000       0.21280000
   127  C          0.19297000       0.15304000       0.59744000
   128  C          0.80703000       0.65304000       0.40256000
   129  H          0.11560000       0.11110000       0.59440000
   130  H          0.88440000       0.61110000       0.40560000
   131  C          0.26795000       0.17293000       0.67913000
   132  C          0.73205000       0.67293000       0.32087000
   133  H          0.23890000       0.14580000       0.73130000
   134  H          0.76110000       0.64580000       0.26870000
   135  C          0.62395000       0.85552000       0.71963000
   136  C          0.37605000       0.35552000       0.28037000
   137  H          0.57950000       0.91020000       0.71640000
   138  H          0.42050000       0.41020000       0.28360000
   139  C          0.78185000       0.84663000       0.72683000
   140  C          0.21815000       0.34663000       0.27317000
   141  H          0.84490000       0.89530000       0.72690000
   142  H          0.15510000       0.39530000       0.27310000
   143  C          0.84845000       0.76573000       0.73383000
   144  C          0.15155000       0.26573000       0.26617000
   145  H          0.95600000       0.76020000       0.73950000
   146  H          0.04400000       0.26020000       0.26050000
   147  C          0.19955000       0.68274000       0.91893000
   148  C          0.80045000       0.18274000       0.08107000
   149  H          0.20320000       0.72190000       0.96630000
   150  H          0.79680000       0.22190000       0.03370000
   151  C          0.31815000       0.67993000       0.85922000
   152  C          0.68185000       0.17993000       0.14078000
   153  H          0.40290000       0.71680000       0.86730000
   154  H          0.59710000       0.21680000       0.13270000
   155  C          0.28115000       0.64593000       0.56723000
   156  C          0.71885000       0.14593000       0.43277000
   157  H          0.23160000       0.68440000       0.60390000
   158  H          0.76840000       0.18440000       0.39610000
   159  C          0.23666000       0.63934000       0.47644000
   160  C          0.76334000       0.13934000       0.52356000
   161  H          0.15640000       0.67360000       0.45180000
   162  H          0.84360000       0.17360000       0.54820000
