data_DERGOX
_symmetry_space_group_name_H-M    'P1'
_symmetry_Int_Tables_number       1
loop_
_symmetry_equiv_pos_site_id
_symmetry_equiv_pos_as_xyz
1 x,y,z
_cell_length_a                   19.9294
_cell_length_b                   9.296919
_cell_length_c                   7.580715
_cell_angle_alpha                90.0
_cell_angle_beta                 107.7574
_cell_angle_gamma                90.0
loop_
_atom_site_label
_atom_site_type_symbol
_atom_site_fract_x
_atom_site_fract_y
_atom_site_fract_z
     1  S          0.64374519       0.74994500       0.64639500
     2  S          0.35625481       0.74994500       0.35360500
     3  S          0.14374519       0.24994500       0.64639500
     4  S          0.85625481       0.24994500       0.35360500
     5  O          0.70283600       0.85040150       0.69214180
     6  O          0.29716400       0.85040150       0.30785820
     7  O          0.20283600       0.35040150       0.69214180
     8  O          0.79716400       0.35040150       0.30785820
     9  C          0.56248800       0.84988180       0.57602000
    10  C          0.43751200       0.84988180       0.42398000
    11  C          0.06248800       0.34988180       0.57602000
    12  C          0.93751200       0.34988180       0.42398000
    13  O          0.64381600       0.66112130       0.48734160
    14  O          0.35618400       0.66112130       0.51265840
    15  O          0.14381600       0.16112130       0.48734160
    16  O          0.85618400       0.16112130       0.51265840
    17  C          0.56198800       0.00057190       0.59342000
    18  C          0.43801200       0.00057190       0.40658000
    19  C          0.06198800       0.50057190       0.59342000
    20  C          0.93801200       0.50057190       0.40658000
    21  O          0.64329700       0.66292130       0.80695170
    22  O          0.35670300       0.66292130       0.19304830
    23  O          0.14329700       0.16292130       0.80695170
    24  O          0.85670300       0.16292130       0.19304830
    25  C          0.50000000       0.07523000       0.50000000
    26  C          0.00000000       0.57523000       0.50000000
    27  C          0.50000000       0.77083000       0.50000000
    28  C          0.00000000       0.27083000       0.50000000
    29  C          0.62382100       0.08682000       0.71393000
    30  C          0.37617900       0.08682000       0.28607000
    31  C          0.12382100       0.58682000       0.71393000
    32  C          0.87617900       0.58682000       0.28607000
    33  H          0.65220000       0.12010000       0.64000000
    34  H          0.34780000       0.12010000       0.36000000
    35  H          0.15220000       0.62010000       0.64000000
    36  H          0.84780000       0.62010000       0.36000000
    37  H          0.65180000       0.02690000       0.81210000
    38  H          0.34820000       0.02690000       0.18790000
    39  H          0.15180000       0.52690000       0.81210000
    40  H          0.84820000       0.52690000       0.18790000
    41  H          0.60660000       0.16770000       0.76570000
    42  H          0.39340000       0.16770000       0.23430000
    43  H          0.10660000       0.66770000       0.76570000
    44  H          0.89340000       0.66770000       0.23430000
    45  C          0.50000000       0.23863000       0.50000000
    46  C          0.00000000       0.73863000       0.50000000
    47  C          0.50000000       0.60803000       0.50000000
    48  C          0.00000000       0.10803000       0.50000000
    49  N          0.72691800       0.39929180       0.89881190
    50  N          0.27308200       0.39929180       0.10118810
    51  N          0.22691800       0.89929180       0.89881190
    52  N          0.77308200       0.89929180       0.10118810
    53  H          0.74220000       0.36650000       0.01000000
    54  H          0.25780000       0.36650000      -0.01000000
    55  H          0.24220000       0.86650000       0.01000000
    56  H          0.75780000       0.86650000      -0.01000000
    57  H          0.69350000       0.46180000       0.87060000
    58  H          0.30650000       0.46180000       0.12940000
    59  H          0.19350000       0.96180000       0.87060000
    60  H          0.80650000       0.96180000       0.12940000
    61  N          0.73026800       0.40272180       0.59839190
    62  N          0.26973200       0.40272180       0.40160810
    63  N          0.23026800       0.90272180       0.59839190
    64  N          0.76973200       0.90272180       0.40160810
    65  H          0.74780000       0.37210000       0.51470000
    66  H          0.25220000       0.37210000       0.48530000
    67  H          0.24780000       0.87210000       0.51470000
    68  H          0.75220000       0.87210000       0.48530000
    69  H          0.69690000       0.46520000       0.57050000
    70  H          0.30310000       0.46520000       0.42950000
    71  H          0.19690000       0.96520000       0.57050000
    72  H          0.80310000       0.96520000       0.42950000
    73  N          0.80612700       0.25752000       0.81345180
    74  N          0.19387300       0.25752000       0.18654820
    75  N          0.30612700       0.75752000       0.81345180
    76  N          0.69387300       0.75752000       0.18654820
    77  H          0.82150000       0.22450000       0.92450000
    78  H          0.17850000       0.22450000       0.07550000
    79  H          0.32150000       0.72450000       0.92450000
    80  H          0.67850000       0.72450000       0.07550000
    81  H          0.82410000       0.22810000       0.73020000
    82  H          0.17590000       0.22810000       0.26980000
    83  H          0.32410000       0.72810000       0.73020000
    84  H          0.67590000       0.72810000       0.26980000
    85  C          0.75485900       0.35345190       0.77082000
    86  C          0.24514100       0.35345190       0.22918000
    87  C          0.25485900       0.85345190       0.77082000
    88  C          0.74514100       0.85345190       0.22918000
    89  C          0.00000000       0.64833000      -0.00000000
    90  C          0.50000000       0.14833000      -0.00000000
    91  C          0.93893100       0.72492000       0.90492000
    92  C          0.06106900       0.72492000       0.09508000
    93  C          0.43893100       0.22492000       0.90492000
    94  C          0.56106900       0.22492000       0.09508000
    95  C          0.94003100       0.87432000       0.90663000
    96  C          0.05996900       0.87432000       0.09337000
    97  C          0.44003100       0.37432000       0.90663000
    98  C          0.55996900       0.37432000       0.09337000
    99  H          0.89940000       0.92430000       0.84340000
   100  H          0.10060000       0.92430000       0.15660000
   101  H          0.39940000       0.42430000       0.84340000
   102  H          0.60060000       0.42430000       0.15660000
   103  C          0.00000000       0.95103000      -0.00000000
   104  C          0.50000000       0.45103000      -0.00000000
   105  C          0.00000000       0.48563000      -0.00000000
   106  C          0.50000000      -0.01437000      -0.00000000
   107  C          0.87198110       0.64793000       0.79713000
   108  C          0.12801890       0.64793000       0.20287000
   109  C          0.37198110       0.14793000       0.79713000
   110  C          0.62801890       0.14793000       0.20287000
   111  H          0.83750000       0.71720000       0.73240000
   112  H          0.16250000       0.71720000       0.26760000
   113  H          0.33750000       0.21720000       0.73240000
   114  H          0.66250000       0.21720000       0.26760000
   115  H          0.85400000       0.59440000       0.88110000
   116  H          0.14600000       0.59440000       0.11890000
   117  H          0.35400000       0.09440000       0.88110000
   118  H          0.64600000       0.09440000       0.11890000
   119  H          0.88200000       0.58330000       0.70960000
   120  H          0.11800000       0.58330000       0.29040000
   121  H          0.38200000       0.08330000       0.70960000
   122  H          0.61800000       0.08330000       0.29040000
   123  C          0.00000000       0.11313000       0.00000000
   124  C          0.50000000       0.61313000      -0.00000000
