data_DESDEK
_symmetry_space_group_name_H-M    'P1'
_symmetry_Int_Tables_number       1
loop_
_symmetry_equiv_pos_site_id
_symmetry_equiv_pos_as_xyz
1 x,y,z
_cell_length_a                   7.3773
_cell_length_b                   12.1512
_cell_length_c                   16.4373
_cell_angle_alpha                72.541
_cell_angle_beta                 78.223
_cell_angle_gamma                73.273
loop_
_atom_site_label
_atom_site_type_symbol
_atom_site_fract_x
_atom_site_fract_y
_atom_site_fract_z
     1  C          0.54545000       0.36023000       0.64282000
     2  C          0.45455000       0.63977000       0.35718000
     3  C          0.62925000       0.45254000       0.59322000
     4  C          0.37075000       0.54746000       0.40678000
     5  C          0.46415000       0.19554000       0.83002000
     6  C          0.53585000       0.80446000       0.16998000
     7  C          0.58916000       0.55614000       0.61833000
     8  C          0.41084000       0.44386000       0.38167000
     9  C          0.49985000       0.07963000       0.83823000
    10  C          0.50015000       0.92037000       0.16177000
    11  C          0.45436000       0.57503000       0.68853000
    12  C          0.54564000       0.42497000       0.31147000
    13  C          0.39067000       0.02713000       0.79913000
    14  C          0.60933000       0.97287000       0.20087000
    15  C          0.34845000       0.49103000       0.72932000
    16  C          0.65155000       0.50897000       0.27068000
    17  C          0.18545000       0.48733000       0.79872000
    18  C          0.81455000       0.51267000       0.20128000
    19  C          0.03906000       0.57533000       0.82673000
    20  C          0.96094000       0.42467000       0.17327000
    21  C          0.23816000       0.11694000       0.75023000
    22  C          0.76184000       0.88306000       0.24977000
    23  C          0.90315000       0.54243000       0.89533000
    24  C          0.09685000       0.45757000       0.10467000
    25  C          0.20655000       0.23263000       0.74082000
    26  C          0.79345000       0.76737000       0.25918000
    27  C          0.90685000       0.42364000       0.93413000
    28  C          0.09315000       0.57636000       0.06587000
    29  C          0.04365000       0.33583000       0.90052000
    30  C          0.95635000       0.66417000       0.09948000
    31  C          0.17585000       0.36823000       0.83312000
    32  C          0.82415000       0.63177000       0.16688000
    33  C          0.31475000       0.28873000       0.77892000
    34  C          0.68525000       0.71127000       0.22108000
    35  C          0.40795000       0.38053000       0.71062000
    36  C          0.59205000       0.61947000       0.28938000
    37  Cl         0.61558160       0.22476900       0.61934700
    38  Cl         0.38441840       0.77523100       0.38065300
    39  Cl         0.78992150       0.43262110       0.50387700
    40  Cl         0.21007850       0.56737890       0.49612300
    41  Cl         0.58912150       0.25156100       0.87879700
    42  Cl         0.41087850       0.74843900       0.12120300
    43  Cl         0.71122000       0.66311000       0.56271000
    44  Cl         0.28878000       0.33689000       0.43729000
    45  Cl         0.67500190       0.98009900       0.89604900
    46  Cl         0.32499810       0.01990100       0.10395100
    47  Cl         0.44342000       0.69181000       0.72911000
    48  Cl         0.55658000       0.30819000       0.27089000
    49  Cl         0.55542000       0.94659000       0.72781000
    50  Cl         0.44458000       0.05341000       0.27219000
    51  Cl         0.28482000       0.92169000       0.88221000
    52  Cl         0.71518000       0.07831000       0.11779000
    53  Cl         0.00622000       0.72261000       0.77281000
    54  Cl        -0.00622000       0.27739000       0.22719000
    55  Cl         0.10792000       0.06071000       0.70441000
    56  Cl         0.89208000       0.93929000       0.29559000
    57  Cl         0.72619840       0.65063100       0.93125800
    58  Cl         0.27380160       0.34936900       0.06874200
    59  Cl         0.03240160       0.33314110       0.68286800
    60  Cl         0.96759840       0.66685890       0.31713200
    61  Cl         0.74123840       0.38452100       0.01920700
    62  Cl         0.25876160       0.61547900       0.98079300
    63  Cl         0.04303140       0.18797800       0.94509600
    64  Cl         0.95696860       0.81202200       0.05490400
    65  C          0.04940000       0.09910000       0.45210000
    66  C          0.95060000       0.90090000       0.54790000
    67  C          0.87330000       0.08810000       0.45610000
    68  C          0.12670000       0.91190000       0.54390000
    69  C          0.17920000       0.01430000       0.49410000
    70  C          0.82080000       0.98570000       0.50590000
    71  H          0.07680000       0.18310000       0.41400000
    72  H          0.92320000       0.81690000       0.58600000
    73  H          0.77817000       0.13980000       0.43460000
    74  H          0.22183000       0.86020000       0.56540000
    75  H          0.32040000       0.02770000       0.48630000
    76  H          0.67960000       0.97230000       0.51370000
    77  H          0.22217000       0.86020000       0.56660000
    78  H          0.77783000       0.13980000       0.43340000
