data_DEWCER
_symmetry_space_group_name_H-M    'P1'
_symmetry_Int_Tables_number       1
loop_
_symmetry_equiv_pos_site_id
_symmetry_equiv_pos_as_xyz
1 x,y,z
_cell_length_a                   12.47348
_cell_length_b                   3.98013
_cell_length_c                   37.4513
_cell_angle_alpha                90.0
_cell_angle_beta                 94.6952
_cell_angle_gamma                90.0
loop_
_atom_site_label
_atom_site_type_symbol
_atom_site_fract_x
_atom_site_fract_y
_atom_site_fract_z
     1  Br         0.07231400       0.21346110       0.63163200
     2  Br         0.92768600       0.71346110       0.86836800
     3  Br         0.92768600       0.78653890       0.36836800
     4  Br         0.07231400       0.28653890       0.13163200
     5  O          0.80402000       0.50039000       0.48517800
     6  O          0.19598000       0.00039000       0.01482200
     7  O          0.19598000       0.49961000       0.51482200
     8  O          0.80402000      -0.00039000       0.98517800
     9  H          0.75867700       0.39961600       0.47118700
    10  H          0.24132300       0.89961600       0.02881300
    11  H          0.24132300       0.60038400       0.52881300
    12  H          0.75867700       0.10038400       0.97118700
    13  O          0.67133000       0.48679000       0.52175900
    14  O          0.32867000      -0.01321000       0.97824100
    15  O          0.32867000       0.51321000       0.47824100
    16  O          0.67133000       0.01321000       0.02175900
    17  C          0.76204000       0.55941100       0.51585120
    18  C          0.23796000       0.05941100       0.98414880
    19  C          0.23796000       0.44058900       0.48414880
    20  C          0.76204000       0.94058900       0.01585120
    21  C          0.83924000       0.72311000       0.54300110
    22  C          0.16076000       0.22311000       0.95699890
    23  C          0.16076000       0.27689000       0.45699890
    24  C          0.83924000       0.77689000       0.04300110
    25  C          0.80424000       0.80371000       0.57618120
    26  C          0.19576000       0.30371000       0.92381880
    27  C          0.19576000       0.19629000       0.42381880
    28  C          0.80424000       0.69629000       0.07618120
    29  H          0.73187000       0.75816700       0.58086600
    30  H          0.26813000       0.25816700       0.91913400
    31  H          0.26813000       0.24183300       0.41913400
    32  H          0.73187000       0.74183300       0.08086600
    33  C          0.87324000       0.94941100       0.60248120
    34  C          0.12676000       0.44941100       0.89751880
    35  C          0.12676000       0.05058900       0.39751880
    36  C          0.87324000       0.55058900       0.10248120
    37  H          0.84939600       0.00144000       0.62530100
    38  H          0.15060400       0.50144000       0.87469900
    39  H          0.15060400      -0.00144000       0.37469900
    40  H          0.84939600       0.49856000       0.12530100
    41  C          0.97784000       0.01811000       0.59486110
    42  C          0.02216000       0.51811000       0.90513890
    43  C          0.02216000      -0.01811000       0.40513890
    44  C          0.97784000       0.48189000       0.09486110
    45  C          0.01484000       0.94421200       0.56230120
    46  C          0.98516000       0.44421200       0.93769880
    47  C          0.98516000       0.05578800       0.43769880
    48  C          0.01484000       0.55578800       0.06230120
    49  H          0.08698800      -0.00726900       0.55772100
    50  H          0.91301200       0.49273100       0.94227900
    51  H          0.91301200       0.00726900       0.44227900
    52  H          0.08698800       0.50726900       0.05772100
    53  C          0.94484000       0.79731100       0.53620120
    54  C          0.05516000       0.29731100       0.96379880
    55  C          0.05516000       0.20268900       0.46379880
    56  C          0.94484000       0.70268900       0.03620120
    57  H          0.96906800       0.74659500       0.51341800
    58  H          0.03093200       0.24659500       0.98658200
    59  H          0.03093200       0.25340500       0.48658200
    60  H          0.96906800       0.75340500       0.01341800
    61  N          0.66403000       0.20359000       0.43914100
    62  N          0.33597000       0.70359000       0.06085900
    63  N          0.33597000       0.79641000       0.56085900
    64  N          0.66403000       0.29641000       0.93914100
    65  C          0.57824000       0.05271300       0.45109120
    66  C          0.42176000       0.55271300       0.04890880
    67  C          0.42176000       0.94728700       0.54890880
    68  C          0.57824000       0.44728700       0.95109120
    69  H          0.57286600       0.04032600       0.47622000
    70  H          0.42713400       0.54032600       0.02378000
    71  H          0.42713400       0.95967400       0.52378000
    72  H          0.57286600       0.45967400       0.97622000
    73  C          0.49624000       0.91318800       0.42840120
    74  C          0.50376000       0.41318800       0.07159880
    75  C          0.50376000       0.08681200       0.57159880
    76  C          0.49624000       0.58681200       0.92840120
    77  H          0.43692600       0.80608600       0.43801700
    78  H          0.56307400       0.30608600       0.06198300
    79  H          0.56307400       0.19391400       0.56198300
    80  H          0.43692600       0.69391400       0.93801700
    81  C          0.50184000       0.93168900       0.39141120
    82  C          0.49816000       0.43168900       0.10858880
    83  C          0.49816000       0.06831100       0.60858880
    84  C          0.50184000       0.56831100       0.89141120
    85  C          0.59223000       0.08521200       0.37937110
    86  C          0.40777000       0.58521200       0.12062890
    87  C          0.40777000       0.91478800       0.62062890
    88  C          0.59223000       0.41478800       0.87937110
    89  H          0.60030000       0.10084200       0.35442100
    90  H          0.39970000       0.60084200       0.14557900
    91  H          0.39970000       0.89915800       0.64557900
    92  H          0.60030000       0.39915800       0.85442100
    93  C          0.66984000       0.21411100       0.40368120
    94  C          0.33016000       0.71411100       0.09631880
    95  C          0.33016000       0.78588900       0.59631880
    96  C          0.66984000       0.28588900       0.90368120
    97  H          0.73107800       0.31653700       0.39480300
    98  H          0.26892200       0.81653700       0.10519700
    99  H          0.26892200       0.68346300       0.60519700
   100  H          0.73107800       0.18346300       0.89480300
   101  C          0.41383000       0.79159000       0.36728120
   102  C          0.58617000       0.29159000       0.13271880
   103  C          0.58617000       0.20841000       0.63271880
   104  C          0.41383000       0.70841000       0.86728120
   105  H          0.36989200       0.62461800       0.37685000
   106  H          0.63010800       0.12461800       0.12315000
   107  H          0.63010800       0.37538200       0.62315000
   108  H          0.36989200       0.87538200       0.87685000
   109  C          0.39063000       0.87839000       0.33335110
   110  C          0.60937000       0.37839000       0.16664890
   111  C          0.60937000       0.12161000       0.66664890
   112  C          0.39063000       0.62161000       0.83335110
   113  H          0.43681000       0.03843800       0.32369100
   114  H          0.56319000       0.53843800       0.17630900
   115  H          0.56319000       0.96156200       0.67630900
   116  H          0.43681000       0.46156200       0.82369100
   117  C          0.30093000       0.75301000       0.30914110
   118  C          0.69907000       0.25301000       0.19085890
   119  C          0.69907000       0.24699000       0.69085890
   120  C          0.30093000       0.74699000       0.80914110
   121  C          0.21943000       0.56738900       0.32193120
   122  C          0.78057000       0.06738900       0.17806880
   123  C          0.78057000       0.43261100       0.67806880
   124  C          0.21943000       0.93261100       0.82193120
   125  H          0.22387400       0.51231000       0.34669000
   126  H          0.77612600       0.01231000       0.15331000
   127  H          0.77612600       0.48769000       0.65331000
   128  H          0.22387400      -0.01231000       0.84669000
   129  C          0.13014000       0.45598900       0.30010130
   130  C          0.86986000       0.95598900       0.19989870
   131  C          0.86986000       0.54401100       0.69989870
   132  C          0.13014000       0.04401100       0.80010130
   133  H          0.07460300       0.33260200       0.31007500
   134  H          0.92539700       0.83260200       0.18992500
   135  H          0.92539700       0.66739800       0.68992500
   136  H          0.07460300       0.16739800       0.81007500
   137  C          0.12364000       0.52658900       0.26422130
   138  C          0.87636000       0.02658900       0.23577870
   139  C          0.87636000       0.47341100       0.73577870
   140  C          0.12364000      -0.02658900       0.76422130
   141  H          0.06347300       0.44933200       0.24924300
   142  H          0.93652700       0.94933200       0.25075700
   143  H          0.93652700       0.55066800       0.75075700
   144  H          0.06347300       0.05066800       0.74924300
   145  C          0.20474000       0.71179000       0.24928120
   146  C          0.79526000       0.21179000       0.25071880
   147  C          0.79526000       0.28821000       0.75071880
   148  C          0.20474000       0.78821000       0.74928120
   149  C          0.19744000       0.78288900       0.21214130
   150  C          0.80256000       0.28288900       0.28785870
   151  C          0.80256000       0.21711100       0.78785870
   152  C          0.19744000       0.71711100       0.71214130
   153  H          0.13611600       0.70915300       0.19751800
   154  H          0.86388400       0.20915300       0.30248200
   155  H          0.86388400       0.29084700       0.80248200
   156  H          0.13611600       0.79084700       0.69751800
   157  C          0.27644000       0.95468800       0.19687120
   158  C          0.72356000       0.45468800       0.30312880
   159  C          0.72356000       0.04531200       0.80312880
   160  C          0.27644000       0.54531200       0.69687120
   161  H          0.26996700       0.00115300       0.17190500
   162  H          0.73003300       0.50115300       0.32809500
   163  H          0.73003300      -0.00115300       0.82809500
   164  H          0.26996700       0.49884700       0.67190500
   165  C          0.36774000       0.06281200       0.21843120
   166  C          0.63226000       0.56281200       0.28156880
   167  C          0.63226000       0.93718800       0.78156880
   168  C          0.36774000       0.43718800       0.71843120
   169  H          0.42367300       0.17875800       0.20787500
   170  H          0.57632700       0.67875800       0.29212500
   171  H          0.57632700       0.82124200       0.79212500
   172  H          0.42367300       0.32124200       0.70787500
   173  C          0.37624000       0.00181000       0.25457120
   174  C          0.62376000       0.50181000       0.24542880
   175  C          0.62376000      -0.00181000       0.74542880
   176  C          0.37624000       0.49819000       0.75457120
   177  H          0.43774800       0.08009400       0.26875500
   178  H          0.56225200       0.58009400       0.23124500
   179  H          0.56225200       0.91990600       0.73124500
   180  H          0.43774800       0.41990600       0.76875500
   181  C          0.29563000       0.82549000       0.27126110
   182  C          0.70437000       0.32549000       0.22873890
   183  C          0.70437000       0.17451000       0.72873890
   184  C          0.29563000       0.67451000       0.77126110
