data_DEWCIV
_symmetry_space_group_name_H-M    'P1'
_symmetry_Int_Tables_number       1
loop_
_symmetry_equiv_pos_site_id
_symmetry_equiv_pos_as_xyz
1 x,y,z
_cell_length_a                   12.539716
_cell_length_b                   3.93144
_cell_length_c                   37.1273
_cell_angle_alpha                90.0
_cell_angle_beta                 95.3531
_cell_angle_gamma                90.0
loop_
_atom_site_label
_atom_site_type_symbol
_atom_site_fract_x
_atom_site_fract_y
_atom_site_fract_z
     1  Cl         0.92198100       0.79688000       0.36958300
     2  Cl         0.07801900       0.29688000       0.13041700
     3  Cl         0.07801900       0.20312000       0.63041700
     4  Cl         0.92198100       0.70312000       0.86958300
     5  O          0.19352000       0.49427000       0.51321600
     6  O          0.80648000      -0.00573000       0.98678400
     7  O          0.80648000       0.50573000       0.48678400
     8  O          0.19352000       0.00573000       0.01321600
     9  H          0.24041600       0.57750000       0.52738400
    10  H          0.75958400       0.07750000       0.97261600
    11  H          0.75958400       0.42250000       0.47261600
    12  H          0.24041600       0.92250000       0.02738400
    13  O          0.32322000       0.50326000       0.47565600
    14  O          0.67678000       0.00326000       0.02434400
    15  O          0.67678000       0.49674000       0.52434400
    16  O          0.32322000      -0.00326000       0.97565600
    17  C          0.15393000       0.27138000       0.45465900
    18  C          0.84607000       0.77138000       0.04534100
    19  C          0.84607000       0.72862000       0.54534100
    20  C          0.15393000       0.22862000       0.95465900
    21  C          0.18513000       0.19108000       0.42075900
    22  C          0.81487000       0.69108000       0.07924100
    23  C          0.81487000       0.80892000       0.57924100
    24  C          0.18513000       0.30892000       0.92075900
    25  H          0.25487900       0.23547600       0.41557600
    26  H          0.74512100       0.73547600       0.08442400
    27  H          0.74512100       0.76452400       0.58442400
    28  H          0.25487900       0.26452400       0.91557600
    29  C          0.23243000       0.43529000       0.48185900
    30  C          0.76757000       0.93529000       0.01814100
    31  C          0.76757000       0.56471000       0.51814100
    32  C          0.23243000       0.06471000       0.98185900
    33  C          0.11403000       0.04698000       0.39483900
    34  C          0.88597000       0.54698000       0.10516100
    35  C          0.88597000       0.95302000       0.60516100
    36  C          0.11403000       0.45302000       0.89483900
    37  H          0.13501100      -0.00347800       0.37204900
    38  H          0.86498900       0.49652200       0.12795100
    39  H          0.86498900       0.00347800       0.62795100
    40  H          0.13501100       0.50347800       0.87204900
    41  C          0.05023000       0.20019000       0.46168900
    42  C          0.94977000       0.70019000       0.03831100
    43  C          0.94977000       0.79981000       0.53831100
    44  C          0.05023000       0.29981000       0.96168900
    45  H          0.02830900       0.25374000       0.48425100
    46  H          0.97169100       0.75374000       0.01574900
    47  H          0.97169100       0.74626000       0.51574900
    48  H          0.02830900       0.24626000       0.98425100
    49  C          0.01113000      -0.02268000       0.40293900
    50  C         -0.01113000       0.47732000       0.09706100
    51  C         -0.01113000       0.02268000       0.59706100
    52  C          0.01113000       0.52268000       0.90293900
    53  C          0.97837000       0.05199000       0.43616900
    54  C          0.02163000       0.55199000       0.06383100
    55  C          0.02163000       0.94801000       0.56383100
    56  C          0.97837000       0.44801000       0.93616900
    57  H          0.90892900       0.00309400       0.44139000
    58  H          0.09107100       0.50309400       0.05861000
    59  H          0.09107100      -0.00309400       0.55861000
    60  H          0.90892900       0.49690600       0.94139000
    61  N          0.33543000       0.78917000       0.55944700
    62  N          0.66457000       0.28917000       0.94055300
    63  N          0.66457000       0.21083000       0.44055300
    64  N          0.33543000       0.71083000       0.05944700
    65  C          0.70483000       0.17218000       0.72917900
    66  C          0.29517000       0.67218000       0.77082100
    67  C          0.29517000       0.82782000       0.27082100
    68  C          0.70483000       0.32782000       0.22917900
    69  C          0.60903000       0.11938000       0.66667900
    70  C          0.39097000       0.61938000       0.83332100
    71  C          0.39097000       0.88062000       0.33332100
    72  C          0.60903000       0.38062000       0.16667900
    73  H          0.56227300      -0.03096800       0.67649300
    74  H          0.43772700       0.46903200       0.82350700
    75  H          0.43772700       0.03096800       0.32350700
    76  H          0.56227300       0.53096800       0.17649300
    77  C          0.50003000       0.06058000       0.60748900
    78  C          0.49997000       0.56058000       0.89251100
    79  C          0.49997000       0.93942000       0.39251100
    80  C          0.50003000       0.43942000       0.10748900
    81  C          0.69893000       0.24438000       0.69128900
    82  C          0.30107000       0.74438000       0.80871100
    83  C          0.30107000       0.75562000       0.30871100
    84  C          0.69893000       0.25562000       0.19128900
    85  C          0.79583000       0.28388000       0.75182900
    86  C          0.20417000       0.78388000       0.74817100
    87  C          0.20417000       0.71612000       0.24817100
    88  C          0.79583000       0.21612000       0.25182900
    89  C          0.62383000      -0.00232000       0.74620900
    90  C          0.37617000       0.49768000       0.75379100
    91  C          0.37617000       0.00232000       0.25379100
    92  C          0.62383000       0.50232000       0.24620900
    93  H          0.56321200       0.92093700       0.73217200
    94  H          0.43678800       0.42093700       0.76782800
    95  H          0.43678800       0.07906300       0.26782800
    96  H          0.56321200       0.57906300       0.23217200
    97  C          0.58683000       0.19698000       0.63180900
    98  C          0.41317000       0.69698000       0.86819100
    99  C          0.41317000       0.80302000       0.36819100
   100  C          0.58683000       0.30302000       0.13180900
   101  H          0.63143100       0.35443000       0.62209800
   102  H          0.36856900       0.85443000       0.87790200
   103  H          0.36856900       0.64557000       0.37790200
   104  H          0.63143100       0.14557000       0.12209800
   105  C          0.87833000       0.46568000       0.73676100
   106  C          0.12167000      -0.03432000       0.76323900
   107  C          0.12167000       0.53432000       0.26323900
   108  C          0.87833000       0.03432000       0.23676100
   109  H          0.93808800       0.53814700       0.75144800
   110  H          0.06191200       0.03814700       0.74855200
   111  H          0.06191200       0.46185300       0.24855200
   112  H          0.93808800       0.96185300       0.25144800
   113  C          0.78103000       0.42518000       0.67838900
   114  C          0.21897000       0.92518000       0.82161100
   115  C          0.21897000       0.57482000       0.32161100
   116  C          0.78103000       0.07482000       0.17838900
   117  H          0.77708000       0.47676100       0.65384700
   118  H          0.22292000      -0.02323900       0.84615300
   119  H          0.22292000       0.52323900       0.34615300
   120  H          0.77708000       0.02323900       0.15384700
   121  C          0.40783000       0.91468000       0.61970900
   122  C          0.59217000       0.41468000       0.88029100
   123  C          0.59217000       0.08532000       0.38029100
   124  C          0.40783000       0.58532000       0.11970900
   125  H          0.39968600       0.90654400       0.64432700
   126  H          0.60031400       0.40654400       0.85567300
   127  H          0.60031400       0.09345600       0.35567300
   128  H          0.39968600       0.59345600       0.14432700
   129  C          0.80323000       0.21308000       0.78928900
   130  C          0.19677000       0.71308000       0.71071100
   131  C          0.19677000       0.78692000       0.21071100
   132  C          0.80323000       0.28692000       0.28928900
   133  H          0.86335400       0.28417400       0.80389600
   134  H          0.13664600       0.78417400       0.69610400
   135  H          0.13664600       0.71582600       0.19610400
   136  H          0.86335400       0.21582600       0.30389600
   137  C          0.72403000       0.04239000       0.80444900
   138  C          0.27597000       0.54239000       0.69555100
   139  C          0.27597000       0.95761000       0.19555100
   140  C          0.72403000       0.45761000       0.30444900
   141  H          0.73066100      -0.00554700       0.82907600
   142  H          0.26933900       0.49445300       0.67092400
   143  H          0.26933900       0.00554700       0.17092400
   144  H          0.73066100       0.50554700       0.32907600
   145  C          0.63263000       0.93988000       0.78266900
   146  C          0.36737000       0.43988000       0.71733100
   147  C          0.36737000       0.06012000       0.21733100
   148  C          0.63263000       0.56012000       0.28266900
   149  H          0.57728900       0.83108200       0.79309700
   150  H          0.42271100       0.33108200       0.70690300
   151  H          0.42271100       0.16891800       0.20690300
   152  H          0.57728900       0.66891800       0.29309700
   153  C          0.33023000       0.78448000       0.59536900
   154  C          0.66977000       0.28448000       0.90463100
   155  C          0.66977000       0.21552000       0.40463100
   156  C          0.33023000       0.71552000       0.09536900
   157  H          0.27024200       0.68696100       0.60417100
   158  H          0.72975800       0.18696100       0.89582900
   159  H          0.72975800       0.31303900       0.39582900
   160  H          0.27024200       0.81303900       0.10417100
   161  C          0.50453000       0.06949000       0.57038900
   162  C          0.49547000       0.56949000       0.92961100
   163  C          0.49547000       0.93051000       0.42961100
   164  C          0.50453000       0.43051000       0.07038900
   165  H          0.56282600       0.16833700       0.56071300
   166  H          0.43717400       0.66833700       0.93928700
   167  H          0.43717400       0.83166300       0.43928700
   168  H          0.56282600       0.33166300       0.06071300
   169  C          0.86973000       0.53388000       0.70064100
   170  C          0.13027000       0.03388000       0.79935900
   171  C          0.13027000       0.46612000       0.29935900
   172  C          0.86973000      -0.03388000       0.20064100
   173  H          0.92379900       0.65435000       0.69076700
   174  H          0.07620100       0.15435000       0.80923300
   175  H          0.07620100       0.34565000       0.30923300
   176  H          0.92379900       0.84565000       0.19076700
   177  C          0.42263000       0.93189000       0.54791100
   178  C          0.57737000       0.43189000       0.95208900
   179  C          0.57737000       0.06811000       0.45208900
   180  C          0.42263000       0.56811000       0.04791100
   181  H          0.42816900       0.93851600       0.52312000
   182  H          0.57183100       0.43851600       0.97688000
   183  H          0.57183100       0.06148400       0.47688000
   184  H          0.42816900       0.56148400       0.02312000
