data_DEYPIK
_symmetry_space_group_name_H-M    'P1'
_symmetry_Int_Tables_number       1
loop_
_symmetry_equiv_pos_site_id
_symmetry_equiv_pos_as_xyz
1 x,y,z
_cell_length_a                   7.038101
_cell_length_b                   12.26432
_cell_length_c                   12.46362
_cell_angle_alpha                103.21501
_cell_angle_beta                 97.79701
_cell_angle_gamma                93.49701
loop_
_atom_site_label
_atom_site_type_symbol
_atom_site_fract_x
_atom_site_fract_y
_atom_site_fract_z
     1  C          0.03126190       0.37903110       0.37027110
     2  C          0.96873810       0.62096890       0.62972890
     3  H          0.10744400       0.32218900       0.38751100
     4  H          0.89255600       0.67781100       0.61248900
     5  C          0.10327180       0.45202100       0.31219100
     6  C          0.89672820       0.54797900       0.68780900
     7  H          0.22724600       0.44560100       0.29057700
     8  H          0.77275400       0.55439900       0.70942300
     9  C         -0.00849840       0.53473900       0.28602900
    10  C          0.00849840       0.46526100       0.71397100
    11  C          0.81231170       0.54285100       0.32108900
    12  C          0.18768830       0.45714900       0.67891100
    13  H          0.73329500       0.59914000       0.30547100
    14  H          0.26670500       0.40086000       0.69452900
    15  C          0.75182170       0.46681100       0.37936100
    16  C          0.24817830       0.53318900       0.62063900
    17  H          0.62973800       0.47244500       0.40361000
    18  H          0.37026200       0.52755500       0.59639000
    19  C          0.07473170       0.61287100       0.22319900
    20  C          0.92526830       0.38712900       0.77680100
    21  C          0.89322180       0.75741110       0.03021110
    22  C          0.10677820       0.24258890       0.96978890
    23  C          0.95482000       0.85086150       0.97891830
    24  C          0.04518000       0.14913850       0.02108170
    25  H          0.06828400       0.89585100       0.02630400
    26  H          0.93171600       0.10414900       0.97369600
    27  H          0.84957800       0.89884800       0.97228100
    28  H          0.15042200       0.10115200       0.02771900
    29  H         -0.01332600       0.81881600       0.90474800
    30  H          0.01332600       0.18118400       0.09525200
    31  C          0.71353180       0.68304100       0.97181900
    32  C          0.28646820       0.31695900       0.02818100
    33  H          0.73899700       0.60396400       0.96875500
    34  H          0.26100300       0.39603600       0.03124500
    35  H          0.68911200       0.69101000       0.89400000
    36  H          0.31088800       0.30899000       0.10600000
    37  C          0.52834170       0.70466100       0.02324100
    38  C          0.47165830       0.29533900       0.97675900
    39  C          0.35832000       0.63429120       0.94464890
    40  C          0.64168000       0.36570880       0.05535110
    41  H          0.38662400       0.55555100       0.92517200
    42  H          0.61337600       0.44444900       0.07482800
    43  H          0.33525700       0.66208200       0.87674100
    44  H          0.66474300       0.33791800       0.12325900
    45  H          0.24342700       0.63980900       0.98131900
    46  H          0.75657300       0.36019100       0.01868100
    47  C          0.49442000       0.82883110       0.04973110
    48  C          0.50558000       0.17116890       0.95026890
    49  H          0.37902900       0.83918100       0.08558200
    50  H          0.62097100       0.16081900       0.91441800
    51  H          0.47634700       0.85460800       0.98050100
    52  H          0.52365300       0.14539200       0.01949900
    53  H          0.60604500       0.87257900       0.10013700
    54  H          0.39395500       0.12742100       0.89986300
    55  N          0.85735150       0.38605800       0.40294800
    56  N          0.14264850       0.61394200       0.59705200
    57  N          0.94383160       0.66115900       0.16497900
    58  N          0.05616840       0.33884100       0.83502100
    59  N          0.00631150       0.74647900       0.11621100
    60  N         -0.00631150       0.25352100       0.88378900
    61  O          0.24980120       0.62644800       0.22519800
    62  O          0.75019880       0.37355200       0.77480200
    63  O          0.55739140       0.66816900       0.12589800
    64  O          0.44260860       0.33183100       0.87410200
    65  H          0.81920000       0.65081300       0.16201300
    66  H          0.18080000       0.34918700       0.83798700
    67  H          0.45930000       0.66141500       0.14881500
    68  H          0.54070000       0.33858500       0.85118500
    69  C          0.52507160       0.15155900       0.59221900
    70  C          0.47492840       0.84844100       0.40778100
    71  C          0.33681170       0.11071100       0.59639100
    72  C          0.66318830       0.88928900       0.40360900
    73  C          0.30182190       0.02325100       0.64708100
    74  C          0.69817810       0.97674900       0.35291900
    75  H          0.17373600      -0.00382600       0.65007100
    76  H          0.82626400       0.00382600       0.34992900
    77  C          0.45622000       0.97672900       0.69279100
    78  C          0.54378000       0.02327100       0.30720900
    79  C          0.64482000       0.01397110       0.69107100
    80  C          0.35518000      -0.01397110       0.30892900
    81  H          0.74916000       0.98031800       0.72316900
    82  H          0.25084000       0.01968200       0.27683100
    83  C          0.67693180       0.10197100       0.64105100
    84  C          0.32306820       0.89802900       0.35894900
    85  H          0.80566900       0.12934400       0.63990600
    86  H          0.19433100       0.87065600       0.36009400
    87  C          0.57215160       0.24531900       0.53680100
    88  C          0.42784840       0.75468100       0.46319900
    89  N          0.41742000       0.88348900       0.74559900
    90  N          0.58258000       0.11651100       0.25440100
    91  O          0.74190120       0.23927700       0.50456800
    92  O          0.25809880       0.76072300       0.49543200
    93  O          0.46521130       0.31639800       0.52352900
    94  O          0.53478870       0.68360200       0.47647100
    95  O          0.54972000       0.82692900       0.76468110
    96  O          0.45028000       0.17307100       0.23531890
    97  O          0.25526190       0.86706900       0.76753100
    98  O          0.74473810       0.13293100       0.23246900
    99  Cl         0.13536400       0.16095300       0.53595300
   100  Cl         0.86463600       0.83904700       0.46404700
   101  H          0.77430000       0.29901900       0.46931800
   102  H          0.22570000       0.70098100       0.53068200
