data_DEYROS
_symmetry_space_group_name_H-M    'P1'
_symmetry_Int_Tables_number       1
loop_
_symmetry_equiv_pos_site_id
_symmetry_equiv_pos_as_xyz
1 x,y,z
_cell_length_a                   8.457314
_cell_length_b                   17.7253
_cell_length_c                   18.7594
_cell_angle_alpha                106.9977
_cell_angle_beta                 93.2297
_cell_angle_gamma                92.0347
loop_
_atom_site_label
_atom_site_type_symbol
_atom_site_fract_x
_atom_site_fract_y
_atom_site_fract_z
     1  I          0.23723200       0.28696200       0.64287200
     2  I          0.76276800       0.71303800       0.35712800
     3  I          0.11203200       0.62311200       0.81696200
     4  I          0.88796800       0.37688800       0.18303800
     5  F          0.12514170       0.43584900       0.76730800
     6  F          0.87485830       0.56415100       0.23269200
     7  F          0.28968190       0.64658900       0.67800900
     8  F          0.71031810       0.35341100       0.32199100
     9  F          0.41295190       0.54429900       0.56177900
    10  F          0.58704810       0.45570100       0.43822100
    11  F          0.38986170       0.38762900       0.54469800
    12  F          0.61013830       0.61237100       0.45530200
    13  C          0.25853000       0.40830150       0.65651140
    14  C          0.74147000       0.59169850       0.34348860
    15  C          0.19653000       0.46280160       0.71636140
    16  C          0.80347000       0.53719840       0.28363860
    17  C          0.20453000       0.54314150       0.72577140
    18  C          0.79547000       0.45685850       0.27422860
    19  C          0.27873000       0.56938150       0.67263140
    20  C          0.72127000       0.43061850       0.32736860
    21  C          0.34173000       0.51713160       0.61237140
    22  C          0.65827000       0.48286840       0.38762860
    23  C          0.33073000       0.43733160       0.60458140
    24  C          0.66927000       0.56266840       0.39541860
    25  I          0.39366200       0.29864200       0.15711200
    26  I          0.60633800       0.70135800       0.84288800
    27  I          0.19057200       0.58106200       0.39910200
    28  I          0.80942800       0.41893800       0.60089800
    29  F          0.31982190       0.47479900       0.24734900
    30  F          0.68017810       0.52520100       0.75265100
    31  F          0.11956180       0.43808100       0.46524900
    32  F          0.88043820       0.56191900       0.53475100
    33  F          0.17740180       0.28360100       0.41706900
    34  F          0.82259820       0.71639900       0.58293100
    35  F          0.30202170       0.22313900       0.28451900
    36  F          0.69797830       0.77686100       0.71548100
    37  C          0.22093000       0.46038150       0.35750150
    38  C          0.77907000       0.53961850       0.64249850
    39  C          0.28423000       0.42746160       0.28917140
    40  C          0.71577000       0.57253840       0.71082860
    41  C          0.31143000       0.34781150       0.26241140
    42  C          0.68857000       0.65218850       0.73758860
    43  C          0.27593000       0.30052150       0.30711150
    44  C          0.72407000       0.69947850       0.69288850
    45  C          0.21153000       0.33102160       0.37517150
    46  C          0.78847000       0.66897840       0.62482850
    47  C          0.18363000       0.40999160       0.39927140
    48  C          0.81637000       0.59000840       0.60072860
    49  I          0.82526200       0.39902200       0.88654800
    50  I          0.17473800       0.60097800       0.11345200
    51  I          0.75419200       0.73973200       0.07191200
    52  I          0.24580800       0.26026800       0.92808800
    53  F          0.85766180       0.58847900       0.94440200
    54  F          0.14233820       0.41152100       0.05559800
    55  F          0.59562170       0.64129900       0.16783800
    56  F          0.40437830       0.35870100       0.83216200
    57  F          0.54190180       0.48581900       0.14581900
    58  F          0.45809820       0.51418100       0.85418100
    59  F          0.63996180       0.38040900       0.02360900
    60  F          0.36003820       0.61959100       0.97639100
    61  C          0.75363000       0.48240150       0.98158860
    62  C          0.24637000       0.51759850       0.01841140
    63  C          0.77823000       0.56261150      -0.00623140
    64  C          0.22177000       0.43738850       0.00623140
    65  C          0.72493000       0.61822140       0.05532140
    66  C          0.27507000       0.38177860       0.94467860
    67  C          0.64683000       0.59054150       0.10618140
    68  C          0.35317000       0.40945850       0.89381860
    69  C          0.61983000       0.51085150       0.09575140
    70  C          0.38017000       0.48914850       0.90424860
    71  C          0.67213000       0.45764150       0.03328150
    72  C          0.32787000       0.54235850       0.96671850
    73  S          0.26980700       0.02971400       0.13364400
    74  S          0.73019300       0.97028600       0.86635600
    75  N          0.39372000       0.91685870       0.19002110
    76  N          0.60628000       0.08314130       0.80997890
    77  H          0.48720000       0.92528200       0.17881700
    78  H          0.51280000       0.07471800       0.82118300
    79  N          0.13632000       0.91819880       0.18912110
    80  N          0.86368000       0.08180120       0.81087890
    81  H          0.04120000       0.92918500       0.18061400
    82  H          0.95880000       0.07081500       0.81938600
    83  C          0.26683000       0.95354850       0.17100130
    84  C          0.73317000       0.04645150       0.82899870
    85  C          0.34513000       0.85709850       0.21949130
    86  C          0.65487000       0.14290150       0.78050870
    87  C          0.42853000       0.80569850       0.24861140
    88  C          0.57147000       0.19430150       0.75138860
    89  H          0.54081400       0.80508800       0.24897400
    90  H          0.45918600       0.19491200       0.75102600
    91  C          0.34063000       0.75525840       0.27716140
    92  C          0.65937000       0.24474160       0.72283860
    93  H          0.39392300       0.71932900       0.29774300
    94  H          0.60607700       0.28067100       0.70225700
    95  C          0.17483000       0.75591840       0.27645140
    96  C          0.82517000       0.24408160       0.72354860
    97  H          0.11857800       0.72015100       0.29626300
    98  H          0.88142200       0.27984900       0.70373700
    99  C          0.09053000       0.80752850       0.24751140
   100  C          0.90947000       0.19247150       0.75248860
   101  H          0.97814400       0.80808500       0.24714300
   102  H          0.02185600       0.19191500       0.75285700
   103  C          0.17923000       0.85825850       0.21913130
   104  C          0.82077000       0.14174150       0.78086870
   105  S          0.76230700       0.92919600       0.13517300
   106  S          0.23769300       0.07080400       0.86482700
   107  N          0.89022000       0.04164120       0.07893120
   108  N          0.10978000       0.95835880       0.92106880
   109  H         -0.01480000       0.03391700       0.09131600
   110  H          0.01480000       0.96608300       0.90868400
   111  N          0.63152000       0.03610120       0.07390110
   112  N          0.36848000       0.96389880       0.92609890
   113  H          0.53920000       0.02571500       0.08511500
   114  H          0.46080000       0.97428500       0.91488500
   115  C          0.76193000       0.00336140       0.09496130
   116  C          0.23807000      -0.00336140       0.90503870
   117  C          0.84253000       0.10176140       0.04983130
   118  C          0.15747000       0.89823860       0.95016870
   119  C          0.92753000       0.15703150       0.02577140
   120  C          0.07247000       0.84296850       0.97422860
   121  H          0.04017400       0.16037800       0.02883000
   122  H          0.95982600       0.83962200       0.97117000
   123  C          0.83863000       0.20721150      -0.00307150
   124  C          0.16137000       0.79278850       0.00307150
   125  H          0.89225900       0.24631700       0.98035100
   126  H          0.10774100       0.75368300       0.01964900
   127  C          0.67333000       0.20197150       0.99157860
   128  C          0.32667000       0.79802850       0.00842140
   129  H          0.61747500       0.23663700       0.97031900
   130  H          0.38252500       0.76336300       0.02968100
   131  C          0.58823000       0.14726150       0.01657130
   132  C          0.41177000       0.85273850       0.98342870
   133  H          0.47550800       0.14378000       0.01328200
   134  H          0.52449200       0.85622000       0.98671800
   135  C          0.67673000       0.09798140       0.04661130
   136  C          0.32327000       0.90201860       0.95338870
   137  S          0.21077700       0.09011400       0.59658400
   138  S          0.78922300       0.90988600       0.40341600
   139  N          0.33352000       0.98621120       0.66496120
   140  N          0.66648000       0.01378880       0.33503880
   141  H          0.42720000      -0.00428200       0.65411700
   142  H          0.57280000       0.00428200       0.34588300
   143  N          0.07552000       0.98679120       0.66091120
   144  N          0.92448000       0.01320880       0.33908880
   145  H          0.97980000      -0.00418400       0.65011500
   146  H          0.02020000       0.00418400       0.34988500
   147  C          0.20633000       0.02032140       0.64225130
   148  C          0.79367000       0.97967860       0.35774870
   149  C          0.28253000       0.92908140       0.69697130
   150  C          0.71747000       0.07091860       0.30302870
   151  C          0.36453000       0.87884150       0.72898140
   152  C          0.63547000       0.12115850       0.27101860
   153  H          0.47701900       0.87889100       0.73165700
   154  H          0.52298100       0.12110900       0.26834300
   155  C          0.27303000       0.82880150       0.75670140
   156  C          0.72697000       0.17119850       0.24329860
   157  H          0.32431800       0.79346300       0.77877500
   158  H          0.67568200       0.20653700       0.22122500
   159  C          0.10783000       0.82884150       0.75312140
   160  C          0.89217000       0.17115850       0.24687860
   161  H          0.04981200       0.79308000       0.77229300
   162  H          0.95018800       0.20692000       0.22770700
   163  C          0.02563000       0.87954150       0.72240140
   164  C          0.97437000       0.12045850       0.27759860
   165  H          0.91315800       0.88024400       0.72081000
   166  H          0.08684200       0.11975600       0.27919000
   167  C          0.11713000       0.92909140       0.69418130
   168  C          0.88287000       0.07090860       0.30581870
   169  S          0.70069300      -0.00554600       0.61172300
   170  S          0.29930700       0.00554600       0.38827700
   171  N          0.83278000       0.09905130       0.54729120
   172  N          0.16722000       0.90094870       0.45270880
   173  H          0.92680000       0.09011800       0.55801700
   174  H          0.07320000       0.90988200       0.44198300
   175  N          0.57508000       0.09692130       0.54319120
   176  N          0.42492000       0.90307870       0.45680880
   177  H          0.48080000       0.08481700       0.55111700
   178  H          0.51920000       0.91518300       0.44888300
   179  C          0.70277000       0.06481140       0.56708130
   180  C          0.29723000       0.93518860       0.43291870
   181  C          0.78787000       0.15416140       0.51139130
   182  C          0.21213000       0.84583860       0.48860870
   183  C          0.87487000       0.20294150       0.48049140
   184  C          0.12513000       0.79705850       0.51950860
   185  H         -0.01265600       0.20324900       0.48161500
   186  H          0.01265600       0.79675100       0.51838500
   187  C          0.79007000       0.25129150       0.44782140
   188  C          0.20993000       0.74870850       0.55217860
   189  H          0.84573800       0.28573100       0.42629200
   190  H          0.15426200       0.71426900       0.57370800
   191  C          0.62417000       0.25043150       0.44591140
   192  C          0.37583000       0.74956850       0.55408860
   193  H          0.57012800       0.28447000       0.42319400
   194  H          0.42987200       0.71553000       0.57680600
   195  C          0.53667000       0.20121150       0.47629140
   196  C          0.46333000       0.79878850       0.52370860
   197  H          0.42417500       0.20055700       0.47483400
   198  H          0.57582500       0.79944300       0.52516600
   199  C          0.62217000       0.15290140       0.50896130
   200  C          0.37783000       0.84709860       0.49103870
