data_DEYSEJ
_symmetry_space_group_name_H-M    'P1'
_symmetry_Int_Tables_number       1
loop_
_symmetry_equiv_pos_site_id
_symmetry_equiv_pos_as_xyz
1 x,y,z
_cell_length_a                   4.55045
_cell_length_b                   13.287214
_cell_length_c                   13.806414
_cell_angle_alpha                94.7664
_cell_angle_beta                 98.1244
_cell_angle_gamma                99.5884
loop_
_atom_site_label
_atom_site_type_symbol
_atom_site_fract_x
_atom_site_fract_y
_atom_site_fract_z
     1  I          0.65636600       0.37716200       0.58352200
     2  I          0.34363400       0.62283800       0.41647800
     3  I          0.65659500       0.36653200       0.30961200
     4  I          0.34340500       0.63346800       0.69038800
     5  F          0.16075000       0.17992180       0.21872160
     6  F          0.83925000       0.82007820       0.78127840
     7  F          0.75924000       0.04739190       0.29154190
     8  F          0.24076000       0.95260810       0.70845810
     9  F          0.75814000       0.05622190       0.48862000
    10  F          0.24186000       0.94377810       0.51138000
    11  F          0.16226000       0.19442000       0.61205170
    12  F          0.83774000       0.80558000       0.38794830
    13  C          0.37588000       0.26523000       0.47983000
    14  C          0.62412000       0.73477000       0.52017000
    15  C          0.37788000       0.26133000       0.37843000
    16  C          0.62212000       0.73867000       0.62157000
    17  C          0.17189000       0.18573000       0.31683000
    18  C          0.82811000       0.81427000       0.68317000
    19  C         -0.03619000       0.11693000       0.35273000
    20  C          0.03619000       0.88307000       0.64727000
    21  C         -0.03739000       0.12223000       0.45353000
    22  C          0.03739000       0.87777000       0.54647000
    23  C          0.16849000       0.19433000       0.51453000
    24  C          0.83151000       0.80567000       0.48547000
    25  S          0.95588000       0.50172800       0.83086700
    26  S          0.04412000       0.49827200       0.16913300
    27  N          0.22567000       0.38423000       0.95782000
    28  N          0.77433000       0.61577000       0.04218000
    29  H          0.16510000       0.41440000       0.00840000
    30  H          0.83490000       0.58560000      -0.00840000
    31  N          0.26067000       0.34432000       0.80492000
    32  N          0.73933000       0.65568000       0.19508000
    33  H          0.25490000       0.34930000       0.74361500
    34  H          0.74510000       0.65070000       0.25638500
    35  C          0.15049000       0.40933000       0.86583000
    36  C          0.84951000       0.59067000       0.13417000
    37  C          0.38638000       0.30383000       0.95583000
    38  C          0.61362000       0.69617000       0.04417000
    39  C          0.50989000       0.25113000       0.02923000
    40  C          0.49011000       0.74887000       0.97077000
    41  H          0.49398600       0.26795400       0.09623500
    42  H          0.50601400       0.73204600       0.90376500
    43  C          0.65809000       0.17263000       0.00083000
    44  C          0.34191000       0.82737000      -0.00083000
    45  H          0.74504500       0.13550000       0.04981500
    46  H          0.25495500       0.86450000       0.95018500
    47  C          0.68289000       0.14643000       0.90193000
    48  C          0.31711000       0.85357000       0.09807000
    49  C          0.56069000       0.20043000       0.82903000
    50  C          0.43931000       0.79957000       0.17097000
    51  H          0.57879200       0.18484700       0.76194200
    52  H          0.42120800       0.81515300       0.23805800
    53  C          0.41089000       0.27823000       0.85793000
    54  C          0.58911000       0.72177000       0.14207000
    55  C          0.84159000       0.05903000       0.87583000
    56  C          0.15841000       0.94097000       0.12417000
    57  H          0.72713300      -0.00552300       0.89093600
    58  H          0.27286700       0.00552300       0.10906400
    59  H          0.04490300       0.07143000       0.91412400
    60  H          0.95509700       0.92857000       0.08587600
    61  H          0.85521100       0.05427000       0.80541600
    62  H          0.14478900       0.94573000       0.19458400
