data_DEYSUZ
_symmetry_space_group_name_H-M    'P1'
_symmetry_Int_Tables_number       1
loop_
_symmetry_equiv_pos_site_id
_symmetry_equiv_pos_as_xyz
1 x,y,z
_cell_length_a                   13.778912
_cell_length_b                   4.41294
_cell_length_c                   25.2522
_cell_angle_alpha                90.0
_cell_angle_beta                 96.3373
_cell_angle_gamma                90.0
loop_
_atom_site_label
_atom_site_type_symbol
_atom_site_fract_x
_atom_site_fract_y
_atom_site_fract_z
     1  I          0.30796300       0.91532900       0.67864200
     2  I          0.19203700       0.41532900       0.82135800
     3  I          0.69203700       0.08467100       0.32135800
     4  I          0.80796300       0.58467100       0.17864200
     5  I          0.44314300       0.94805900       0.81380200
     6  I          0.05685700       0.44805900       0.68619800
     7  I          0.55685700       0.05194100       0.18619800
     8  I          0.94314300       0.55194100       0.31380200
     9  F          0.62453000       0.36409000       0.80387170
    10  F          0.87547000       0.86409000       0.69612830
    11  F          0.37547000       0.63591000       0.19612830
    12  F          0.12453000       0.13591000       0.30387170
    13  F          0.68763000       0.67651000       0.72302000
    14  F          0.81237000       0.17651000       0.77698000
    15  F          0.31237000       0.32349000       0.27698000
    16  F          0.18763000       0.82349000       0.22302000
    17  F          0.59033000       0.64111000       0.62370190
    18  F          0.90967000       0.14111000       0.87629810
    19  F          0.40967000       0.35889000       0.37629810
    20  F          0.09033000       0.85889000       0.12370190
    21  F          0.43203000       0.28971000       0.60463170
    22  F          0.06797000       0.78971000       0.89536830
    23  F          0.56797000       0.71029000       0.39536830
    24  F          0.93203000       0.21029000       0.10463170
    25  C          0.43995000       0.14681500       0.69573000
    26  C          0.06005000       0.64681500       0.80427000
    27  C          0.56005000       0.85318500       0.30427000
    28  C          0.93995000       0.35318500       0.19573000
    29  C          0.48965000       0.16821400       0.74723000
    30  C          0.01035000       0.66821400       0.75277000
    31  C          0.51035000       0.83178600       0.25277000
    32  C         -0.01035000       0.33178600       0.24723000
    33  C          0.57495000       0.34171500       0.75613000
    34  C          0.92505000       0.84171500       0.74387000
    35  C          0.42505000       0.65828500       0.24387000
    36  C          0.07495000       0.15828500       0.25613000
    37  C          0.60785000       0.49631500       0.71413000
    38  C          0.89215000      -0.00368500       0.78587000
    39  C          0.39215000       0.50368500       0.28587000
    40  C          0.10785000       0.00368500       0.21413000
    41  C          0.55836000       0.48361600       0.66293000
    42  C          0.94164000      -0.01638400       0.83707000
    43  C          0.44164000       0.51638400       0.33707000
    44  C          0.05836000       0.01638400       0.16293000
    45  C          0.47675000       0.30231600       0.65423000
    46  C          0.02325000       0.80231600       0.84577000
    47  C          0.52325000       0.69768400       0.34577000
    48  C          0.97675000       0.19768400       0.15423000
    49  S          0.07783130       0.03884000       0.57938700
    50  S          0.42216870       0.53884000       0.92061300
    51  S          0.92216870       0.96116000       0.42061300
    52  S          0.57783130       0.46116000       0.07938700
    53  O          0.21573000       0.41961000       0.55679190
    54  O          0.28427000       0.91961000       0.94320810
    55  O          0.78427000       0.58039000       0.44320810
    56  O          0.71573000       0.08039000       0.05679190
    57  N          0.11004000       0.32271300       0.48742000
    58  N          0.38996000       0.82271300       0.01258000
    59  N          0.88996000       0.67728700       0.51258000
    60  N          0.61004000       0.17728700       0.98742000
    61  H          0.06860000       0.22818000       0.46630000
    62  H          0.43140000       0.72818000       0.03370000
    63  H          0.93140000       0.77182000       0.53370000
    64  H          0.56860000       0.27182000       0.96630000
    65  C          0.13255000       0.26291400       0.53893000
    66  C          0.36745000       0.76291400       0.96107000
    67  C          0.86745000       0.73708600       0.46107000
    68  C          0.63255000       0.23708600       0.03893000
    69  C          0.17725000       0.52521500       0.46953000
    70  C          0.32275000       0.02521500       0.03047000
    71  C          0.82275000       0.47478500       0.53047000
    72  C          0.67725000      -0.02521500       0.96953000
    73  C          0.18685000       0.65691600       0.42163000
    74  C          0.31315000       0.15691600       0.07837000
    75  C          0.81315000       0.34308400       0.57837000
    76  C          0.68685000       0.84308400       0.92163000
    77  H          0.14181000       0.61740500       0.39105300
    78  H          0.35819000       0.11740500       0.10894700
    79  H          0.85819000       0.38259500       0.60894700
    80  H          0.64181000       0.88259500       0.89105300
    81  C          0.26595000       0.85271500       0.41933000
    82  C          0.23405000       0.35271500       0.08067000
    83  C          0.73405000       0.14728500       0.58067000
    84  C          0.76595000       0.64728500       0.91933000
    85  H          0.27489700       0.94820100       0.38652300
    86  H          0.22510300       0.44820100       0.11347700
    87  H          0.72510300       0.05179900       0.61347700
    88  H          0.77489700       0.55179900       0.88652300
    89  C          0.33166000       0.91111600       0.46373000
    90  C          0.16834000       0.41111600       0.03627000
    91  C          0.66834000       0.08888400       0.53627000
    92  C          0.83166000       0.58888400       0.96373000
    93  H          0.38444800       0.04585100       0.46064900
    94  H          0.11555200       0.54585100       0.03935100
    95  H          0.61555200       0.95414900       0.53935100
    96  H          0.88444800       0.45414900       0.96064900
    97  C          0.32185000       0.77611500       0.51303000
    98  C          0.17815000       0.27611500       0.98697000
    99  C          0.67815000       0.22388500       0.48697000
   100  C          0.82185000       0.72388500       0.01303000
   101  H          0.36659600       0.81340800       0.54363100
   102  H          0.13340400       0.31340800       0.95636900
   103  H          0.63340400       0.18659200       0.45636900
   104  H          0.86659600       0.68659200       0.04363100
   105  C          0.24295000       0.58521400       0.51403000
   106  C          0.25705000       0.08521400       0.98597000
   107  C          0.75705000       0.41478600       0.48597000
   108  C          0.74295000       0.91478600       0.01403000
