data_DEYSOT
_symmetry_space_group_name_H-M    'P1'
_symmetry_Int_Tables_number       1
loop_
_symmetry_equiv_pos_site_id
_symmetry_equiv_pos_as_xyz
1 x,y,z
_cell_length_a                   15.1912
_cell_length_b                   5.00747
_cell_length_c                   22.7153
_cell_angle_alpha                90.0
_cell_angle_beta                 97.4606
_cell_angle_gamma                90.0
loop_
_atom_site_label
_atom_site_type_symbol
_atom_site_fract_x
_atom_site_fract_y
_atom_site_fract_z
     1  I          0.83468400       0.73539120       0.22592300
     2  I          0.16531600       0.23539120       0.27407700
     3  I          0.16531600       0.26460880       0.77407700
     4  I          0.83468400       0.76460880       0.72592300
     5  I          0.12973300       0.55191110       0.42927200
     6  I          0.87026700       0.05191110       0.07072800
     7  I          0.87026700       0.44808890       0.57072800
     8  I          0.12973300       0.94808890       0.92927200
     9  I          0.78829300       0.93607890       0.42073200
    10  I          0.21170700       0.43607890       0.07926800
    11  I          0.21170700       0.06392110       0.57926800
    12  I          0.78829300       0.56392110       0.92073200
    13  F          0.01603000       0.78791000       0.31052000
    14  F          0.98397000       0.28791000       0.18948000
    15  F          0.98397000       0.21209000       0.68948000
    16  F          0.01603000       0.71209000       0.81052000
    17  F          0.98293000       0.15381000       0.45782000
    18  F          0.01707000       0.65381000       0.04218000
    19  F          0.01707000       0.84619000       0.54218000
    20  F          0.98293000       0.34619000       0.95782000
    21  F          0.75343000       0.28621100       0.30132000
    22  F          0.24657000       0.78621100       0.19868000
    23  F          0.24657000       0.71378900       0.69868000
    24  F          0.75343000       0.21378900       0.80132000
    25  C          0.88395000       0.53601600       0.30414000
    26  C          0.11605000       0.03601600       0.19586000
    27  C          0.11605000       0.46398400       0.69586000
    28  C          0.88395000       0.96398400       0.80414000
    29  C          0.96725000       0.59841700       0.33344000
    30  C          0.03275000       0.09841700       0.16656000
    31  C          0.03275000       0.40158300       0.66656000
    32  C          0.96725000       0.90158300       0.83344000
    33  C          0.00305000       0.47121800       0.38504000
    34  C         -0.00305000       0.97121800       0.11496000
    35  C         -0.00305000       0.52878200       0.61496000
    36  C          0.00305000       0.02878200       0.88504000
    37  C          0.95045000       0.28241700       0.40793000
    38  C          0.04955000       0.78241700       0.09207000
    39  C          0.04955000       0.71758300       0.59207000
    40  C          0.95045000       0.21758300       0.90793000
    41  C          0.86525000       0.21391700       0.38114000
    42  C          0.13475000       0.71391700       0.11886000
    43  C          0.13475000       0.78608300       0.61886000
    44  C          0.86525000       0.28608300       0.88114000
    45  C          0.83465000       0.34581700       0.32854000
    46  C          0.16535000       0.84581700       0.17146000
    47  C          0.16535000       0.65418300       0.67146000
    48  C          0.83465000       0.15418300       0.82854000
    49  S          0.34093130       0.49564000       0.50777900
    50  S          0.65906870      -0.00436000       0.99222100
    51  S          0.65906870       0.50436000       0.49222100
    52  S          0.34093130       0.00436000       0.00777900
    53  N          0.45635000       0.22041500       0.44723000
    54  N          0.54365000       0.72041500       0.05277000
    55  N          0.54365000       0.77958500       0.55277000
    56  N          0.45635000       0.27958500       0.94723000
    57  H          0.50540000       0.30200000       0.46050000
    58  H          0.49460000       0.80200000       0.03950000
    59  H          0.49460000       0.69800000       0.53950000
    60  H          0.50540000       0.19800000       0.96050000
    61  N          0.31815000       0.10171500       0.42393000
    62  N          0.68185000       0.60171500       0.07607000
    63  N          0.68185000       0.89828500       0.57607000
    64  N          0.31815000       0.39828500       0.92393000
    65  H          0.26360000       0.10617000       0.42740000
    66  H          0.73640000       0.60617000       0.07260000
    67  H          0.73640000       0.89383000       0.57260000
    68  H          0.26360000       0.39383000       0.92740000
    69  C          0.37215000       0.27031600       0.45924000
    70  C          0.62785000       0.77031600       0.04076000
    71  C          0.62785000       0.72968400       0.54076000
    72  C          0.37215000       0.22968400       0.95924000
    73  C          0.45515000       0.02481700       0.40364000
    74  C          0.54485000       0.52481700       0.09636000
    75  C          0.54485000      -0.02481700       0.59636000
    76  C          0.45515000       0.47518300       0.90364000
    77  C          0.52236000       0.90161800       0.37824000
    78  C          0.47764000       0.40161800       0.12176000
    79  C          0.47764000       0.09838200       0.62176000
    80  C          0.52236000       0.59838200       0.87824000
    81  H          0.58245600       0.95231100       0.38904600
    82  H          0.41754400       0.45231100       0.11095400
    83  H          0.41754400       0.04768900       0.61095400
    84  H          0.58245600       0.54768900       0.88904600
    85  C          0.50005000       0.70201700       0.33644000
    86  C          0.49995000       0.20201700       0.16356000
    87  C          0.49995000       0.29798300       0.66356000
    88  C          0.50005000       0.79798300       0.83644000
    89  C          0.41096000       0.62521800       0.32264000
    90  C          0.58904000       0.12521800       0.17736000
    91  C          0.58904000       0.37478200       0.67736000
    92  C          0.41096000       0.87478200       0.82264000
    93  H          0.39680500       0.48461000       0.29492700
    94  H          0.60319500      -0.01539000       0.20507300
    95  H          0.60319500       0.51539000       0.70507300
    96  H          0.39680500       0.01539000       0.79492700
    97  C          0.34276000       0.74561700       0.34774000
    98  C          0.65724000       0.24561700       0.15226000
    99  C          0.65724000       0.25438300       0.65226000
   100  C          0.34276000       0.75438300       0.84774000
   101  H          0.28254000       0.69583900       0.33656100
   102  H          0.71746000       0.19583900       0.16343900
   103  H          0.71746000       0.30416100       0.66343900
   104  H          0.28254000       0.80416100       0.83656100
   105  C          0.36635000       0.94331800       0.39024000
   106  C          0.63365000       0.44331800       0.10976000
   107  C          0.63365000       0.05668200       0.60976000
   108  C          0.36635000       0.55668200       0.89024000
   109  C          0.57096000       0.56220000       0.30804000
   110  C          0.42904000       0.06220000       0.19196000
   111  C          0.42904000       0.43780000       0.69196000
   112  C          0.57096000       0.93780000       0.80804000
   113  H          0.58862200       0.39830600       0.33022500
   114  H          0.41137800       0.89830600       0.16977500
   115  H          0.41137800       0.60169400       0.66977500
   116  H          0.58862200       0.10169400       0.83022500
   117  H          0.62248700       0.67929700       0.30821800
   118  H          0.37751300       0.17929700       0.19178200
   119  H          0.37751300       0.32070300       0.69178200
   120  H          0.62248700       0.82070300       0.80821800
   121  H          0.54796900       0.51518200       0.26692000
   122  H          0.45203100       0.01518200       0.23308000
   123  H          0.45203100       0.48481800       0.73308000
   124  H          0.54796900      -0.01518200       0.76692000
