data_DEYTIO
_symmetry_space_group_name_H-M    'P1'
_symmetry_Int_Tables_number       1
loop_
_symmetry_equiv_pos_site_id
_symmetry_equiv_pos_as_xyz
1 x,y,z
_cell_length_a                   14.92957
_cell_length_b                   4.61192
_cell_length_c                   23.506512
_cell_angle_alpha                90.0
_cell_angle_beta                 92.5482
_cell_angle_gamma                90.0
loop_
_atom_site_label
_atom_site_type_symbol
_atom_site_fract_x
_atom_site_fract_y
_atom_site_fract_z
     1  I          0.70807200       0.45232700       0.55419200
     2  I          0.29192800       0.95232700       0.94580800
     3  I          0.29192800       0.54767300       0.44580800
     4  I          0.70807200       0.04767300       0.05419200
     5  I          0.67869200       0.23515800       0.76030200
     6  I          0.32130800       0.73515800       0.73969800
     7  I          0.32130800       0.76484200       0.23969800
     8  I          0.67869200       0.26484200       0.26030200
     9  I          0.36351200       0.08539800       0.59175200
    10  I          0.63648800       0.58539800       0.90824800
    11  I          0.63648800       0.91460200       0.40824800
    12  I          0.36351200       0.41460200       0.09175200
    13  F          0.75694180       0.80017000       0.66897140
    14  F          0.24305820       0.30017000       0.83102860
    15  F          0.24305820       0.19983000       0.33102860
    16  F          0.75694180       0.69983000       0.16897140
    17  F          0.48842000       0.29837000       0.69902140
    18  F          0.51158000       0.79837000       0.80097860
    19  F          0.51158000       0.70163000       0.30097860
    20  F          0.48842000       0.20163000       0.19902140
    21  F          0.50893190       0.68407000       0.54104130
    22  F          0.49106810       0.18407000       0.95895870
    23  F          0.49106810       0.31593000       0.45895870
    24  F          0.50893190       0.81593000       0.04104130
    25  C          0.63363000       0.72731100       0.60512000
    26  C          0.36637000       0.22731100       0.89488000
    27  C          0.36637000       0.27268900       0.39488000
    28  C          0.63363000       0.77268900       0.10512000
    29  C          0.67003000       0.85661200       0.65362000
    30  C          0.32997000       0.35661200       0.84638000
    31  C          0.32997000       0.14338800       0.34638000
    32  C          0.67003000       0.64338800       0.15362000
    33  C          0.62303000       0.04731200       0.68612000
    34  C          0.37697000       0.54731200       0.81388000
    35  C          0.37697000       0.95268800       0.31388000
    36  C          0.62303000       0.45268800       0.18612000
    37  C          0.53573000       0.11001100       0.66842000
    38  C          0.46427000       0.61001100       0.83158000
    39  C          0.46427000       0.88998900       0.33158000
    40  C          0.53573000       0.38998900       0.16842000
    41  C          0.49503000      -0.01118800       0.61972000
    42  C          0.50497000       0.48881200       0.88028000
    43  C          0.50497000       0.01118800       0.38028000
    44  C          0.49503000       0.51118800       0.11972000
    45  C          0.54563000       0.80011100       0.58882000
    46  C          0.45437000       0.30011100       0.91118000
    47  C          0.45437000       0.19988900       0.41118000
    48  C          0.54563000       0.69988900       0.08882000
    49  S          0.85264800       0.00733000       0.48739600
    50  S          0.14735200       0.50733000       0.01260400
    51  S          0.14735200      -0.00733000       0.51260400
    52  S          0.85264800       0.49267000       0.98739600
    53  O          0.84172000       0.38868000       0.40283150
    54  O          0.15828000       0.88868000       0.09716850
    55  O          0.15828000       0.61132000       0.59716850
    56  O          0.84172000       0.11132000       0.90283150
    57  N          0.98063000       0.31731000       0.43450190
    58  N          0.01937000       0.81731000       0.06549810
    59  N          0.01937000       0.68269000       0.56549810
    60  N          0.98063000       0.18269000       0.93450190
    61  H          0.02140000       0.23515000       0.45630000
    62  H          0.97860000       0.73515000       0.04370000
    63  H          0.97860000       0.76485000       0.54370000
    64  H          0.02140000       0.26485000       0.95630000
    65  C          0.89533000       0.24051200       0.44172000
    66  C          0.10467000       0.74051200       0.05828000
    67  C          0.10467000       0.75948800       0.55828000
    68  C          0.89533000       0.25948800       0.94172000
    69  C          0.98503000       0.51921100       0.39012000
    70  C          0.01497000       0.01921100       0.10988000
    71  C          0.01497000       0.48078900       0.60988000
    72  C          0.98503000      -0.01921100       0.89012000
    73  C          0.05494000       0.66791200       0.36612000
    74  C          0.94506000       0.16791200       0.13388000
    75  C          0.94506000       0.33208800       0.63388000
    76  C          0.05494000       0.83208800       0.86612000
    77  H          0.11555400       0.64059100       0.37887500
    78  H          0.88444600       0.14059100       0.12112500
    79  H          0.88444600       0.35940900       0.62112500
    80  H          0.11555400       0.85940900       0.87887500
    81  C          0.03094000       0.85961200       0.32222000
    82  C          0.96906000       0.35961200       0.17778000
    83  C          0.96906000       0.14038800       0.67778000
    84  C          0.03094000       0.64038800       0.82222000
    85  H          0.07636900       0.96530100       0.30422000
    86  H          0.92363100       0.46530100       0.19578000
    87  H          0.92363100       0.03469900       0.69578000
    88  H          0.07636900       0.53469900       0.80422000
    89  C          0.94024000       0.90021200       0.30382000
    90  C          0.05976000       0.40021200       0.19618000
    91  C          0.05976000       0.09978800       0.69618000
    92  C          0.94024000       0.59978800       0.80382000
    93  H          0.92616500       0.03405200       0.27401800
    94  H          0.07383500       0.53405200       0.22598200
    95  H          0.07383500       0.96594800       0.72598200
    96  H          0.92616500       0.46594800       0.77401800
    97  C          0.87183000       0.75041200       0.32812000
    98  C          0.12817000       0.25041200       0.17188000
    99  C          0.12817000       0.24958800       0.67188000
   100  C          0.87183000       0.74958800       0.82812000
   101  H          0.81088400       0.77493200       0.31555800
   102  H          0.18911600       0.27493200       0.18444200
   103  H          0.18911600       0.22506800       0.68444200
   104  H          0.81088400       0.72506800       0.81555800
   105  C          0.89693000       0.56321100       0.37152000
   106  C          0.10307000       0.06321100       0.12848000
   107  C          0.10307000       0.43678900       0.62848000
   108  C          0.89693000       0.93678900       0.87152000
