data_DEYTAG
_symmetry_space_group_name_H-M    'P1'
_symmetry_Int_Tables_number       1
loop_
_symmetry_equiv_pos_site_id
_symmetry_equiv_pos_as_xyz
1 x,y,z
_cell_length_a                   15.16558
_cell_length_b                   4.38032
_cell_length_c                   23.035812
_cell_angle_alpha                90.0
_cell_angle_beta                 99.9232
_cell_angle_gamma                90.0
loop_
_atom_site_label
_atom_site_type_symbol
_atom_site_fract_x
_atom_site_fract_y
_atom_site_fract_z
     1  I          0.71955200      -0.00881300       0.06483200
     2  I          0.28044800       0.49118700       0.43516800
     3  I          0.28044800       0.00881300       0.93516800
     4  I          0.71955200       0.50881300       0.56483200
     5  I          0.36910200       0.55990400       0.09449200
     6  I          0.63089800       0.05990400       0.40550800
     7  I          0.63089800       0.44009600       0.90550800
     8  I          0.36910200       0.94009600       0.59449200
     9  F          0.51550900       0.17963000       0.04571600
    10  F          0.48449100       0.67963000       0.45428400
    11  F          0.48449100       0.82037000       0.95428400
    12  F          0.51550900       0.32037000       0.54571600
    13  F          0.50261120       0.80714000       0.20979700
    14  F          0.49738880       0.30714000       0.29020300
    15  F          0.49738880       0.19286000       0.79020300
    16  F          0.50261120       0.69286000       0.70979700
    17  F          0.67787120       0.70604000       0.24932700
    18  F          0.32212880       0.20604000       0.25067300
    19  F          0.32212880       0.29396000       0.75067300
    20  F          0.67787120       0.79396000       0.74932700
    21  F          0.77333100       0.34904000       0.18773700
    22  F          0.22666900       0.84904000       0.31226300
    23  F          0.22666900       0.65096000       0.81226300
    24  F          0.77333100       0.15096000       0.68773700
    25  C          0.64548140       0.24985000       0.11554100
    26  C          0.35451860       0.74985000       0.38445900
    27  C          0.35451860       0.75015000       0.88445900
    28  C          0.64548140       0.25015000       0.61554100
    29  C          0.55516140       0.30565000       0.09648100
    30  C          0.44483860       0.80565000       0.40351900
    31  C          0.44483860       0.69435000       0.90351900
    32  C          0.55516140       0.19435000       0.59648100
    33  C          0.50419150       0.48885000       0.12703100
    34  C          0.49580850      -0.01115000       0.37296900
    35  C          0.49580850       0.51115000       0.87296900
    36  C          0.50419150       0.01115000       0.62703100
    37  C          0.54714170       0.62135000       0.17885110
    38  C          0.45285830       0.12135000       0.32114890
    39  C          0.45285830       0.37865000       0.82114890
    40  C          0.54714170       0.87865000       0.67885110
    41  C          0.63676180       0.57046000       0.19943100
    42  C          0.36323820       0.07046000       0.30056900
    43  C          0.36323820       0.42954000       0.80056900
    44  C          0.63676180       0.92954000       0.69943100
    45  C          0.68526160       0.38666000       0.16770110
    46  C          0.31473840       0.88666000       0.33229890
    47  C          0.31473840       0.61334000       0.83229890
    48  C          0.68526160       0.11334000       0.66770110
    49  S          0.85453400       0.94524120       0.49409200
    50  S          0.14546600       0.44524120       0.00590800
    51  S          0.14546600       0.05475880       0.50590800
    52  S          0.85453400       0.55475880      -0.00590800
    53  O          0.82568100       0.55763000       0.40484700
    54  O          0.17431900       0.05763000       0.09515300
    55  O          0.17431900       0.44237000       0.59515300
    56  O          0.82568100       0.94237000       0.90484700
    57  N          0.96873120       0.65824000       0.43253800
    58  N          0.03126880       0.15824000       0.06746200
    59  N          0.03126880       0.34176000       0.56746200
    60  N          0.96873120       0.84176000       0.93253800
    61  H          0.01711900       0.74270000       0.45291300
    62  H          0.98288100       0.24270000       0.04708700
    63  H          0.98288100       0.25730000       0.54708700
    64  H          0.01711900       0.75730000       0.95291300
    65  C          0.88629140       0.71825000       0.44345900
    66  C          0.11370860       0.21825000       0.05654100
    67  C          0.11370860       0.28175000       0.55654100
    68  C          0.88629140       0.78175000       0.94345900
    69  C          0.96367140       0.45045000       0.38611900
    70  C          0.03632860       0.95045000       0.11388100
    71  C          0.03632860       0.54955000       0.61388100
    72  C          0.96367140       0.04955000       0.88611900
    73  C          0.02660140       0.31385000       0.35766100
    74  C          0.97339860       0.81385000       0.14233900
    75  C          0.97339860       0.68615000       0.64233900
    76  C          0.02660140       0.18615000       0.85766100
    77  H          0.08876000       0.35487000       0.36858100
    78  H          0.91124000       0.85487000       0.13141900
    79  H          0.91124000       0.64513000       0.63141900
    80  H          0.08876000       0.14513000       0.86858100
    81  C         -0.00605850       0.11295000       0.31216100
    82  C          0.00605850       0.61295000       0.18783900
    83  C          0.00605850       0.88705000       0.68783900
    84  C         -0.00605850       0.38705000       0.81216100
    85  H          0.03500300       0.01354500       0.29162900
    86  H          0.96499700       0.51354500       0.20837100
    87  H          0.96499700      -0.01354500       0.70837100
    88  H          0.03500300       0.48645500       0.79162900
    89  C          0.90240150       0.05335000       0.29583100
    90  C          0.09759850       0.55335000       0.20416900
    91  C          0.09759850       0.94665000       0.70416900
    92  C          0.90240150       0.44665000       0.79583100
    93  H          0.88284900       0.91468700       0.26453100
    94  H          0.11715100       0.41468700       0.23546900
    95  H          0.11715100       0.08531300       0.73546900
    96  H          0.88284900       0.58531300       0.76453100
    97  C          0.83913140       0.19305000       0.32450100
    98  C          0.16086860       0.69305000       0.17549900
    99  C          0.16086860       0.80695000       0.67549900
   100  C          0.83913140       0.30695000       0.82450100
   101  H          0.77678600       0.15486000       0.31373300
   102  H          0.22321400       0.65486000       0.18626700
   103  H          0.22321400       0.84514000       0.68626700
   104  H          0.77678600       0.34514000       0.81373300
   105  C          0.87317140       0.38975000       0.36943900
   106  C          0.12682860       0.88975000       0.13056100
   107  C          0.12682860       0.61025000       0.63056100
   108  C          0.87317140       0.11025000       0.86943900
