data_DEYTEK
_symmetry_space_group_name_H-M    'P1'
_symmetry_Int_Tables_number       1
loop_
_symmetry_equiv_pos_site_id
_symmetry_equiv_pos_as_xyz
1 x,y,z
_cell_length_a                   31.0254
_cell_length_b                   4.31595
_cell_length_c                   19.0612
_cell_angle_alpha                90.0
_cell_angle_beta                 114.4344
_cell_angle_gamma                90.0
loop_
_atom_site_label
_atom_site_type_symbol
_atom_site_fract_x
_atom_site_fract_y
_atom_site_fract_z
     1  I          0.64136200       0.39079500       0.46092200
     2  I          0.35863800       0.39079500       0.03907800
     3  I          0.14136200       0.89079500       0.46092200
     4  I          0.85863800       0.89079500       0.03907800
     5  I          0.35863800       0.60920500       0.53907800
     6  I          0.64136200       0.60920500       0.96092200
     7  I          0.85863800       0.10920500       0.53907800
     8  I          0.14136200       0.10920500       0.96092200
     9  F          0.71102700       0.79545000       0.60381110
    10  F          0.28897300       0.79545000       0.89618890
    11  F          0.21102700       0.29545000       0.60381110
    12  F          0.78897300       0.29545000       0.89618890
    13  F          0.28897300       0.20455000       0.39618890
    14  F          0.71102700       0.20455000       0.10381110
    15  F          0.78897300       0.70455000       0.39618890
    16  F          0.21102700       0.70455000       0.10381110
    17  F          0.70741700       0.41645000       0.36823110
    18  F          0.29258300       0.41645000       0.13176890
    19  F          0.20741700       0.91645000       0.36823110
    20  F          0.79258300       0.91645000       0.13176890
    21  F          0.29258300       0.58355000       0.63176890
    22  F          0.70741700       0.58355000       0.86823110
    23  F          0.79258300       0.08355000       0.63176890
    24  F          0.20741700       0.08355000       0.86823110
    25  C          0.70659110       0.60298000       0.48500190
    26  C          0.29340890       0.60298000       0.01499810
    27  C          0.20659110       0.10298000       0.48500190
    28  C          0.79340890       0.10298000       0.01499810
    29  C          0.29340890       0.39702000       0.51499810
    30  C          0.70659110       0.39702000       0.98500190
    31  C          0.79340890       0.89702000       0.51499810
    32  C          0.20659110       0.89702000       0.98500190
    33  C          0.72975110       0.77078000       0.55172190
    34  C          0.27024890       0.77078000       0.94827810
    35  C          0.22975110       0.27078000       0.55172190
    36  C          0.77024890       0.27078000       0.94827810
    37  C          0.27024890       0.22922000       0.44827810
    38  C          0.72975110       0.22922000       0.05172190
    39  C          0.77024890       0.72922000       0.44827810
    40  C          0.22975110       0.72922000       0.05172190
    41  C          0.72770120       0.58258000       0.43364190
    42  C          0.27229880       0.58258000       0.06635810
    43  C          0.22770120       0.08258000       0.43364190
    44  C          0.77229880       0.08258000       0.06635810
    45  C          0.27229880       0.41742000       0.56635810
    46  C          0.72770120       0.41742000       0.93364190
    47  C          0.77229880       0.91742000       0.56635810
    48  C          0.22770120       0.91742000       0.93364190
    49  S          0.54594300       0.01942000       0.43700500
    50  S          0.45405700       0.01942000       0.06299500
    51  S          0.04594300       0.51942000       0.43700500
    52  S          0.95405700       0.51942000       0.06299500
    53  S          0.45405700      -0.01942000       0.56299500
    54  S          0.54594300      -0.01942000       0.93700500
    55  S          0.95405700       0.48058000       0.56299500
    56  S          0.04594300       0.48058000       0.93700500
    57  O          0.49241800       0.40595000       0.32770120
    58  O          0.50758200       0.40595000       0.17229880
    59  O          0.99241800       0.90595000       0.32770120
    60  O          0.00758200       0.90595000       0.17229880
    61  O          0.50758200       0.59405000       0.67229880
    62  O          0.49241800       0.59405000       0.82770120
    63  O          0.00758200       0.09405000       0.67229880
    64  O          0.99241800       0.09405000       0.82770120
    65  N          0.46292100       0.30627000       0.41195160
    66  N          0.53707900       0.30627000       0.08804840
    67  N          0.96292100       0.80627000       0.41195160
    68  N          0.03707900       0.80627000       0.08804840
    69  N          0.53707900       0.69373000       0.58804840
    70  N          0.46292100       0.69373000       0.91195160
    71  N          0.03707900       0.19373000       0.58804840
    72  N          0.96292100       0.19373000       0.91195160
    73  H          0.46091400       0.22410000       0.45220000
    74  H          0.53908600       0.22410000       0.04780000
    75  H          0.96091400       0.72410000       0.45220000
    76  H          0.03908600       0.72410000       0.04780000
    77  H          0.53908600       0.77590000       0.54780000
    78  H          0.46091400       0.77590000       0.95220000
    79  H          0.03908600       0.27590000       0.54780000
    80  H          0.96091400       0.27590000       0.95220000
    81  C          0.49912120       0.24918000       0.39283180
    82  C          0.50087880       0.24918000       0.10716820
    83  C         -0.00087880       0.74918000       0.39283180
    84  C          0.00087880       0.74918000       0.10716820
    85  C          0.50087880       0.75082000       0.60716820
    86  C          0.49912120       0.75082000       0.89283180
    87  C          0.00087880       0.25082000       0.60716820
    88  C         -0.00087880       0.25082000       0.89283180
    89  C          0.43102120       0.50928000       0.35848180
    90  C          0.56897880       0.50928000       0.14151820
    91  C          0.93102120       0.00928000       0.35848180
    92  C          0.06897880       0.00928000       0.14151820
    93  C          0.56897880       0.49072000       0.64151820
    94  C          0.43102120       0.49072000       0.85848180
    95  C          0.06897880      -0.00928000       0.64151820
    96  C          0.93102120      -0.00928000       0.85848180
    97  C          0.38827120       0.63628000       0.35038190
    98  C          0.61172880       0.63628000       0.14961810
    99  C          0.88827120       0.13628000       0.35038190
   100  C          0.11172880       0.13628000       0.14961810
   101  C          0.61172880       0.36372000       0.64961810
   102  C          0.38827120       0.36372000       0.85038190
   103  C          0.11172880       0.86372000       0.64961810
   104  C          0.88827120       0.86372000       0.85038190
   105  H          0.37456700       0.59247100       0.38557800
   106  H          0.62543300       0.59247100       0.11442200
   107  H          0.87456700       0.09247100       0.38557800
   108  H          0.12543300       0.09247100       0.11442200
   109  H          0.62543300       0.40752900       0.61442200
   110  H          0.37456700       0.40752900       0.88557800
   111  H          0.12543300       0.90752900       0.61442200
   112  H          0.87456700       0.90752900       0.88557800
   113  C          0.36660120       0.83208000       0.28752000
   114  C          0.63339880       0.83208000       0.21248000
   115  C          0.86660120       0.33208000       0.28752000
   116  C          0.13339880       0.33208000       0.21248000
   117  C          0.63339880       0.16792000       0.71248000
   118  C          0.36660120       0.16792000       0.78752000
   119  C          0.13339880       0.66792000       0.71248000
   120  C          0.86660120       0.66792000       0.78752000
   121  H          0.33726400       0.92574600       0.27973900
   122  H          0.66273600       0.92574600       0.22026100
   123  H          0.83726400       0.42574600       0.27973900
   124  H          0.16273600       0.42574600       0.22026100
   125  H          0.66273600       0.07425400       0.72026100
   126  H          0.33726400       0.07425400       0.77973900
   127  H          0.16273600       0.57425400       0.72026100
   128  H          0.83726400       0.57425400       0.77973900
   129  C          0.38649130       0.89508000       0.23552000
   130  C          0.61350870       0.89508000       0.26448000
   131  C          0.88649130       0.39508000       0.23552000
   132  C          0.11350870       0.39508000       0.26448000
   133  C          0.61350870       0.10492000       0.76448000
   134  C          0.38649130       0.10492000       0.73552000
   135  C          0.11350870       0.60492000       0.76448000
   136  C          0.88649130       0.60492000       0.73552000
   137  H          0.37040600       0.03093900       0.19358100
   138  H          0.62959400       0.03093900       0.30641900
   139  H          0.87040600       0.53093900       0.19358100
   140  H          0.12959400       0.53093900       0.30641900
   141  H          0.62959400      -0.03093900       0.80641900
   142  H          0.37040600      -0.03093900       0.69358100
   143  H          0.12959400       0.46906100       0.80641900
   144  H          0.87040600       0.46906100       0.69358100
   145  C          0.42930120       0.76438000       0.24340190
   146  C          0.57069880       0.76438000       0.25659810
   147  C          0.92930120       0.26438000       0.24340190
   148  C          0.07069880       0.26438000       0.25659810
   149  C          0.57069880       0.23562000       0.75659810
   150  C          0.42930120       0.23562000       0.74340190
   151  C          0.07069880       0.73562000       0.75659810
   152  C          0.92930120       0.73562000       0.74340190
   153  H          0.44305500       0.80526700       0.20813500
   154  H          0.55694500       0.80526700       0.29186500
   155  H          0.94305500       0.30526700       0.20813500
   156  H          0.05694500       0.30526700       0.29186500
   157  H          0.55694500       0.19473300       0.79186500
   158  H          0.44305500       0.19473300       0.70813500
   159  H          0.05694500       0.69473300       0.79186500
   160  H          0.94305500       0.69473300       0.70813500
   161  C          0.45026110       0.57147000       0.30592180
   162  C          0.54973890       0.57147000       0.19407820
   163  C          0.95026110       0.07147000       0.30592180
   164  C          0.04973890       0.07147000       0.19407820
   165  C          0.54973890       0.42853000       0.69407820
   166  C          0.45026110       0.42853000       0.80592180
   167  C          0.04973890       0.92853000       0.69407820
   168  C          0.95026110       0.92853000       0.80592180
