data_DEYTUA
_symmetry_space_group_name_H-M    'P1'
_symmetry_Int_Tables_number       1
loop_
_symmetry_equiv_pos_site_id
_symmetry_equiv_pos_as_xyz
1 x,y,z
_cell_length_a                   7.21754
_cell_length_b                   8.26755
_cell_length_c                   14.44989
_cell_angle_alpha                97.9362
_cell_angle_beta                 91.2972
_cell_angle_gamma                109.1782
loop_
_atom_site_label
_atom_site_type_symbol
_atom_site_fract_x
_atom_site_fract_y
_atom_site_fract_z
     1  I          0.21928200       0.04578200       0.73577200
     2  I          0.78071800       0.95421800       0.26422800
     3  I          0.40359200       0.24728200       0.35536200
     4  I          0.59640800       0.75271800       0.64463800
     5  F          0.17793180       0.11993180       0.52937900
     6  F          0.82206820       0.88006820       0.47062100
     7  F          0.83758190       0.35764190       0.45929900
     8  F          0.16241810       0.64235810       0.54070100
     9  F          0.95882180       0.33437180       0.63449900
    10  F          0.04117820       0.66562820       0.36550100
    11  F          0.69486180       0.19590150       0.75449800
    12  F          0.30513820       0.80409850       0.24550200
    13  C          0.42873000       0.15632000       0.64457130
    14  C          0.57127000       0.84368000       0.35542870
    15  C          0.37113000       0.17453000       0.55526130
    16  C          0.62887000       0.82547000       0.44473870
    17  C          0.50383000       0.24212000       0.49121130
    18  C          0.49617000       0.75788000       0.50878870
    19  C          0.70283000       0.29463000       0.51885140
    20  C          0.29717000       0.70537000       0.48114860
    21  C          0.76643000       0.28133000       0.60795140
    22  C          0.23357000       0.71867000       0.39204860
    23  C          0.62893000       0.21092000       0.66928120
    24  C          0.37107000       0.78908000       0.33071880
    25  S          0.82694700       0.91230600       0.86324300
    26  S          0.17305300       0.08769400       0.13675700
    27  S          0.65916600       0.53019500       0.86630300
    28  S          0.34083400       0.46980500       0.13369700
    29  N          0.86122000       0.74012190       0.00562100
    30  N          0.13878000       0.25987810      -0.00562100
    31  H          0.93840000       0.83540000       0.03861900
    32  H          0.06160000       0.16460000       0.96138100
    33  C          0.79382000       0.73982000       0.91829120
    34  C          0.20618000       0.26018000       0.08170880
    35  C          0.70062000       0.44532000       0.96579120
    36  C          0.29938000       0.55468000       0.03420880
    37  C          0.63893000       0.27362000       0.98130130
    38  C          0.36107000       0.72638000       0.01869870
    39  H          0.56353600       0.18221600       0.93412500
    40  H          0.43646400       0.81778400       0.06587500
    41  C          0.69133000       0.24052000       0.06823140
    42  C          0.30867000       0.75948000       0.93176860
    43  H          0.65028900       0.12454700       0.08063800
    44  H          0.34971100       0.87545300       0.91936200
    45  C          0.80323000       0.37492000       0.13778130
    46  C          0.19677000       0.62508000       0.86221870
    47  H          0.83622100       0.34858200       0.19661300
    48  H          0.16377900       0.65141800       0.80338700
    49  C          0.86673000       0.54572000       0.12210130
    50  C          0.13327000       0.45428000       0.87789870
    51  H          0.94388600       0.63683800       0.16895100
    52  H          0.05611400       0.36316200       0.83104900
    53  C          0.81342000       0.57922000       0.03532120
    54  C          0.18658000       0.42078000       0.96467880
