data_DEYVIQ
_symmetry_space_group_name_H-M    'P1'
_symmetry_Int_Tables_number       1
loop_
_symmetry_equiv_pos_site_id
_symmetry_equiv_pos_as_xyz
1 x,y,z
_cell_length_a                   15.26656
_cell_length_b                   4.73802
_cell_length_c                   23.22151
_cell_angle_alpha                90.0
_cell_angle_beta                 93.1392
_cell_angle_gamma                90.0
loop_
_atom_site_label
_atom_site_type_symbol
_atom_site_fract_x
_atom_site_fract_y
_atom_site_fract_z
     1  I          0.70161200       0.58105500       0.55847200
     2  I          0.29838800       0.08105500       0.94152800
     3  I          0.29838800       0.41894500       0.44152800
     4  I          0.70161200       0.91894500       0.05847200
     5  I          0.68104200       0.81128400       0.76567200
     6  I          0.31895800       0.31128400       0.73432800
     7  I          0.31895800       0.18871600       0.23432800
     8  I          0.68104200       0.68871600       0.26567200
     9  I          0.37648200       0.88615400       0.58903200
    10  I          0.62351800       0.38615400       0.91096800
    11  I          0.62351800       0.11384600       0.41096800
    12  I          0.37648200       0.61384600       0.08903200
    13  F          0.75133130       0.25055000       0.67513900
    14  F          0.24866870       0.75055000       0.82486100
    15  F          0.24866870       0.74945000       0.32486100
    16  F          0.75133130       0.24945000       0.17513900
    17  F          0.49679140       0.71835000       0.70076900
    18  F          0.50320860       0.21835000       0.79923100
    19  F          0.50320860       0.28165000       0.29923100
    20  F          0.49679140       0.78165000       0.20076900
    21  F          0.51145130       0.31385000       0.54048900
    22  F          0.48854870       0.81385000       0.95951100
    23  F          0.48854870       0.68615000       0.45951100
    24  F          0.51145130       0.18615000       0.04048900
    25  C          0.63172000       0.29727000       0.60769150
    26  C          0.36828000       0.79727000       0.89230850
    27  C          0.36828000       0.70273000       0.39230850
    28  C          0.63172000       0.20273000       0.10769150
    29  C          0.66832000       0.18058000       0.65793150
    30  C          0.33168000       0.68058000       0.84206850
    31  C          0.33168000       0.81942000       0.34206850
    32  C          0.66832000       0.31942000       0.15793150
    33  C          0.62422000      -0.01298000       0.69039150
    34  C          0.37578000       0.48702000       0.80960850
    35  C          0.37578000       0.01298000       0.30960850
    36  C          0.62422000       0.51298000       0.19039150
    37  C          0.54042000       0.90892000       0.67047150
    38  C          0.45958000       0.40892000       0.82952850
    39  C          0.45958000       0.09108000       0.32952850
    40  C          0.54042000       0.59108000       0.17047150
    41  C          0.50082000       0.01728000       0.62016150
    42  C          0.49918000       0.51728000       0.87983850
    43  C          0.49918000      -0.01728000       0.37983850
    44  C          0.50082000       0.48272000       0.12016150
    45  C          0.54772000       0.21028000       0.58980150
    46  C          0.45228000       0.71028000       0.91019850
    47  C          0.45228000       0.78972000       0.41019850
    48  C          0.54772000       0.28972000       0.08980150
    49  S          0.85079600       0.01322000       0.49475400
    50  S          0.14920400       0.51322000       0.00524600
    51  S          0.14920400      -0.01322000       0.50524600
    52  S          0.85079600       0.48678000      -0.00524600
    53  S          0.81182600       0.60442000       0.39819400
    54  S          0.18817400       0.10442000       0.10180600
    55  S          0.18817400       0.39558000       0.60180600
    56  S          0.81182600       0.89558000       0.89819400
    57  N          0.96772000       0.70717000       0.43672130
    58  N          0.03228000       0.20717000       0.06327870
    59  N          0.03228000       0.29283000       0.56327870
    60  N          0.96772000       0.79283000       0.93672130
    61  H          0.01120000       0.77710000       0.45711800
    62  H          0.98880000       0.27710000       0.04288200
    63  H          0.98880000       0.22290000       0.54288200
    64  H          0.01120000       0.72290000       0.95711800
    65  C          0.88422000       0.78358000       0.44595150
    66  C          0.11578000       0.28358000       0.05404850
    67  C          0.11578000       0.21642000       0.55404850
    68  C          0.88422000       0.71642000       0.94595150
    69  C          0.97772000       0.50768000       0.39362160
    70  C          0.02228000       0.00768000       0.10637840
    71  C          0.02228000       0.49232000       0.60637840
    72  C          0.97772000      -0.00768000       0.89362160
    73  C          0.05563000       0.39359000       0.37636180
    74  C          0.94437000       0.89359000       0.12363820
    75  C          0.94437000       0.60641000       0.62363820
    76  C          0.05563000       0.10641000       0.87636180
    77  H          0.11035400       0.45329100       0.39358900
    78  H          0.88964600       0.95329100       0.10641100
    79  H          0.88964600       0.54670900       0.60641100
    80  H          0.11035400       0.04670900       0.89358900
    81  C          0.05183000       0.19139000       0.33364180
    82  C          0.94817000       0.69139000       0.16635820
    83  C          0.94817000       0.80861000       0.66635820
    84  C          0.05183000       0.30861000       0.83364180
    85  H          0.10461900       0.10779200       0.32201000
    86  H          0.89538100       0.60779200       0.17799000
    87  H          0.89538100       0.89220800       0.67799000
    88  H          0.10461900       0.39220800       0.82201000
    89  C          0.97203000       0.10729000       0.30721180
    90  C          0.02797000       0.60729000       0.19278820
    91  C          0.02797000       0.89271000       0.69278820
    92  C          0.97203000       0.39271000       0.80721180
    93  H          0.97121600       0.96865100       0.27761400
    94  H          0.02878400       0.46865100       0.22238600
    95  H          0.02878400       0.03134900       0.72238600
    96  H          0.97121600       0.53134900       0.77761400
    97  C          0.89343000       0.22288000       0.32348170
    98  C          0.10657000       0.72288000       0.17651830
    99  C          0.10657000       0.77712000       0.67651830
   100  C          0.89343000       0.27712000       0.82348170
   101  H          0.83887400       0.16547800       0.30546300
   102  H          0.16112600       0.66547800       0.19453700
   103  H          0.16112600       0.83452200       0.69453700
   104  H          0.83887400       0.33452200       0.80546300
   105  C          0.89702000       0.42568000       0.36705150
   106  C          0.10298000       0.92568000       0.13294850
   107  C          0.10298000       0.57432000       0.63294850
   108  C          0.89702000       0.07432000       0.86705150
