data_DGLYCI01
_symmetry_space_group_name_H-M    'P1'
_symmetry_Int_Tables_number       1
loop_
_symmetry_equiv_pos_site_id
_symmetry_equiv_pos_as_xyz
1 x,y,z
_cell_length_a                   18.5894
_cell_length_b                   5.1611
_cell_length_c                   20.3894
_cell_angle_alpha                90.0
_cell_angle_beta                 110.673
_cell_angle_gamma                90.0
loop_
_atom_site_label
_atom_site_type_symbol
_atom_site_fract_x
_atom_site_fract_y
_atom_site_fract_z
     1  I          0.49189310       0.89961300       0.38964590
     2  I          0.50810690       0.89961300       0.61035410
     3  I         -0.00810690       0.39961300       0.38964590
     4  I          0.00810690       0.39961300       0.61035410
     5  I          0.50685210       0.36868300       0.10670890
     6  I          0.49314790       0.36868300       0.89329110
     7  I          0.00685210       0.86868300       0.10670890
     8  I         -0.00685210       0.86868300       0.89329110
     9  O          0.28095130       0.69786000       0.19655120
    10  O          0.71904870       0.69786000       0.80344880
    11  O          0.78095130       0.19786000       0.19655120
    12  O          0.21904870       0.19786000       0.80344880
    13  O          0.38756120       0.82446000       0.17930120
    14  O          0.61243880       0.82446000       0.82069880
    15  O          0.88756120       0.32446000       0.17930120
    16  O          0.11243880       0.32446000       0.82069880
    17  C          0.35117160       0.67407000       0.20169140
    18  C          0.64882840       0.67407000       0.79830860
    19  C          0.85117160       0.17407000       0.20169140
    20  C          0.14882840       0.17407000       0.79830860
    21  C          0.38988160       0.42866000       0.23877150
    22  C          0.61011840       0.42866000       0.76122850
    23  C          0.88988160       0.92866000       0.23877150
    24  C          0.11011840       0.92866000       0.76122850
    25  H          0.40020000       0.32680000       0.20861800
    26  H          0.59980000       0.32680000       0.79138200
    27  H          0.90020000       0.82680000       0.20861800
    28  H          0.09980000       0.82680000       0.79138200
    29  H          0.43720000       0.46580000       0.27291900
    30  H          0.56280000       0.46580000       0.72708100
    31  H          0.93720000       0.96580000       0.27291900
    32  H          0.06280000       0.96580000       0.72708100
    33  N          0.34317160       0.29945000       0.27439160
    34  N          0.65682840       0.29945000       0.72560840
    35  N          0.84317160       0.79945000       0.27439160
    36  N          0.15682840       0.79945000       0.72560840
    37  H          0.36931900       0.17270000       0.30381800
    38  H          0.63068100       0.17270000       0.69618200
    39  H          0.86931900       0.67270000       0.30381800
    40  H          0.13068100       0.67270000       0.69618200
    41  H          0.29730000       0.26690000       0.24820000
    42  H          0.70270000       0.26690000       0.75180000
    43  H          0.79730000       0.76690000       0.24820000
    44  H          0.20270000       0.76690000       0.75180000
    45  H          0.33051900       0.40980000       0.30771900
    46  H          0.66948100       0.40980000       0.69228100
    47  H          0.83051900       0.90980000       0.30771900
    48  H          0.16948100       0.90980000       0.69228100
    49  O          0.72747130       0.52896000       0.30388140
    50  O          0.27252870       0.52896000       0.69611860
    51  O          0.22747130       0.02896000       0.30388140
    52  O          0.77252870       0.02896000       0.69611860
    53  H          0.74930000       0.38680000       0.33620000
    54  H          0.25070000       0.38680000       0.66380000
    55  H          0.24930000       0.88680000       0.33620000
    56  H          0.75070000       0.88680000       0.66380000
    57  O          0.61149120       0.44026000       0.30843120
    58  O          0.38850880       0.44026000       0.69156880
    59  O          0.11149120       0.94026000       0.30843120
    60  O          0.88850880       0.94026000       0.69156880
    61  C          0.65527160       0.57847000       0.29140140
    62  C          0.34472840       0.57847000       0.70859860
    63  C          0.15527160       0.07847000       0.29140140
    64  C          0.84472840       0.07847000       0.70859860
    65  C          0.63160170       0.82877000       0.25244160
    66  C          0.36839830       0.82877000       0.74755840
    67  C          0.13160170       0.32877000       0.25244160
    68  C          0.86839830       0.32877000       0.74755840
    69  H          0.64630000       0.80911000       0.20630000
    70  H          0.35370000       0.80911000       0.79370000
    71  H          0.14630000       0.30911000       0.20630000
    72  H          0.85370000       0.30911000       0.79370000
    73  H          0.66020000       0.95590000       0.27720000
    74  H          0.33980000       0.95590000       0.72280000
    75  H          0.16020000       0.45590000       0.27720000
    76  H          0.83980000       0.45590000       0.72280000
    77  N          0.54953140       0.88106000       0.23708130
    78  N          0.45046860       0.88106000       0.76291870
    79  N          0.04953140       0.38106000       0.23708130
    80  N          0.95046860       0.38106000       0.76291870
    81  H          0.54030000       0.00411000       0.21630000
    82  H          0.45970000       0.00411000       0.78370000
    83  H          0.04030000       0.50411000       0.21630000
    84  H          0.95970000       0.50411000       0.78370000
    85  H          0.54020000       0.89490000       0.27920000
    86  H          0.45980000       0.89490000       0.72080000
    87  H          0.04020000       0.39490000       0.27920000
    88  H          0.95980000       0.39490000       0.72080000
    89  H          0.52130000       0.75910000       0.21420000
    90  H          0.47870000       0.75910000       0.78580000
    91  H          0.02130000       0.25910000       0.21420000
    92  H          0.97870000       0.25910000       0.78580000
    93  O          0.21910130       0.10196000       0.14243110
    94  O          0.78089870       0.10196000       0.85756890
    95  O          0.71910130       0.60196000       0.14243110
    96  O          0.28089870       0.60196000       0.85756890
    97  H          0.24930000       0.93930000       0.16330000
    98  H          0.75070000       0.93930000       0.83670000
    99  H          0.74930000       0.43930000       0.16330000
   100  H          0.25070000       0.43930000       0.83670000
   101  O          0.21608120       0.97195000       0.03642110
   102  O          0.78391880       0.97195000       0.96357890
   103  O          0.71608120       0.47195000       0.03642110
   104  O          0.28391880       0.47195000       0.96357890
   105  C          0.19938170       0.12457000       0.07551150
   106  C          0.80061830       0.12457000       0.92448850
   107  C          0.69938170       0.62457000       0.07551150
   108  C          0.30061830       0.62457000       0.92448850
   109  C          0.15092000       0.35851200       0.04585160
   110  C          0.84908000       0.35851200       0.95414840
   111  C          0.65092000       0.85851200       0.04585160
   112  C          0.34908000       0.85851200       0.95414840
   113  H          0.10530000       0.36014000       0.05430000
   114  H          0.89470000       0.36014000       0.94570000
   115  H          0.60530000       0.86014000       0.05430000
   116  H          0.39470000       0.86014000       0.94570000
   117  H          0.17720000       0.52810000       0.06820000
   118  H          0.82280000       0.52810000       0.93180000
   119  H          0.67720000       0.02810000       0.06820000
   120  H          0.32280000       0.02810000       0.93180000
   121  N          0.13546160       0.38231000       0.96995880
   122  N          0.86453840       0.38231000       0.03004120
   123  N          0.63546160       0.88231000       0.96995880
   124  N          0.36453840       0.88231000       0.03004120
   125  H          0.10230000       0.53313000       0.94870000
   126  H          0.89770000       0.53313000       0.05130000
   127  H          0.60230000       0.03313000       0.94870000
   128  H          0.39770000       0.03313000       0.05130000
   129  H          0.11330000       0.25311000       0.95170000
   130  H          0.88670000       0.25311000       0.04830000
   131  H          0.61330000       0.75311000       0.95170000
   132  H          0.38670000       0.75311000       0.04830000
   133  H          0.17620000       0.40514000       0.96180000
   134  H          0.82380000       0.40514000       0.03820000
   135  H          0.67620000       0.90514000       0.96180000
   136  H          0.32380000       0.90514000       0.03820000
   137  O          0.28850120       0.62165000       0.36352100
   138  O          0.71149880       0.62165000       0.63647900
   139  O          0.78850120       0.12165000       0.36352100
   140  O          0.21149880       0.12165000       0.63647900
   141  O          0.28327130       0.77166000       0.46438110
   142  O          0.71672870       0.77166000       0.53561890
   143  O          0.78327130       0.27166000       0.46438110
   144  O          0.21672870       0.27166000       0.53561890
   145  C          0.30514170       0.61778000       0.42960160
   146  C          0.69485830       0.61778000       0.57039840
   147  C          0.80514170       0.11778000       0.42960160
   148  C          0.19485830       0.11778000       0.57039840
   149  C          0.35723180       0.39791100       0.46635140
   150  C          0.64276820       0.39791100       0.53364860
   151  C          0.85723180       0.89791100       0.46635140
   152  C          0.14276820       0.89791100       0.53364860
   153  H          0.33720000       0.25710000       0.44920000
   154  H          0.66280000       0.25710000       0.55080000
   155  H          0.83720000       0.75710000       0.44920000
   156  H          0.16280000       0.75710000       0.55080000
   157  H          0.40420000       0.41510000       0.46621800
   158  H          0.59580000       0.41510000       0.53378200
   159  H          0.90420000       0.91510000       0.46621800
   160  H          0.09580000       0.91510000       0.53378200
   161  N          0.36633160       0.38931100       0.54141120
   162  N          0.63366840       0.38931100       0.45858880
   163  N          0.86633160       0.88931100       0.54141120
   164  N          0.13366840       0.88931100       0.45858880
   165  H          0.39230000       0.26411000       0.55630000
   166  H          0.60770000       0.26411000       0.44370000
   167  H          0.89230000       0.76411000       0.55630000
   168  H          0.10770000       0.76411000       0.44370000
   169  H          0.32520000       0.37614000       0.54620000
   170  H          0.67480000       0.37614000       0.45380000
   171  H          0.82520000       0.87614000       0.54620000
   172  H          0.17480000       0.87614000       0.45380000
   173  H          0.38930000       0.53411000       0.56630000
   174  H          0.61070000       0.53411000       0.43370000
   175  H          0.88930000       0.03411000       0.56630000
   176  H          0.11070000       0.03411000       0.43370000
