data_DGLYHC01
_symmetry_space_group_name_H-M    'P1'
_symmetry_Int_Tables_number       1
loop_
_symmetry_equiv_pos_site_id
_symmetry_equiv_pos_as_xyz
1 x,y,z
_cell_length_a                   5.29926
_cell_length_b                   8.0832
_cell_length_c                   17.9732
_cell_angle_alpha                90.0
_cell_angle_beta                 90.0
_cell_angle_gamma                90.0
loop_
_atom_site_label
_atom_site_type_symbol
_atom_site_fract_x
_atom_site_fract_y
_atom_site_fract_z
     1  Cl         0.33608000       0.92492000       0.53351000
     2  Cl         0.83608000       0.57508000       0.46649000
     3  Cl         0.66392000       0.42492000       0.96649000
     4  Cl         0.16392000       0.07508000       0.03351000
     5  O          0.38197000       0.78005000       0.21012000
     6  O          0.88197000       0.71995000       0.78988000
     7  O          0.61803000       0.28005000       0.28988000
     8  O          0.11803000       0.21995000       0.71012000
     9  O          0.69727000       0.83805000       0.28832000
    10  O          0.19727000       0.66195000       0.71168000
    11  O          0.30273000       0.33805000       0.21168000
    12  O          0.80273000       0.16195000       0.78832000
    13  C          0.48871000       0.77377000       0.27303000
    14  C         -0.01129000       0.72623000       0.72697000
    15  C          0.51129000       0.27377000       0.22697000
    16  C          0.01129000       0.22623000       0.77303000
    17  C          0.36121000       0.67646000       0.33393000
    18  C          0.86121000       0.82354000       0.66607000
    19  C          0.63879000       0.17646000       0.16607000
    20  C          0.13879000       0.32354000       0.83393000
    21  N          0.12018000       0.60195000       0.30832000
    22  N          0.62018000       0.89805000       0.69168000
    23  N          0.87982000       0.10195000       0.19168000
    24  N          0.37982000       0.39805000       0.80832000
    25  H          0.48780000       0.59100000       0.35470000
    26  H         -0.01220000       0.90900000       0.64530000
    27  H          0.51220000       0.09100000       0.14530000
    28  H          0.01220000       0.40900000       0.85470000
    29  H          0.34040000       0.74630000       0.37990000
    30  H          0.84040000       0.75370000       0.62010000
    31  H          0.65960000       0.24630000       0.12010000
    32  H          0.15960000       0.25370000       0.87990000
    33  H          0.17210000       0.50670000       0.27790000
    34  H          0.67210000      -0.00670000       0.72210000
    35  H          0.82790000       0.00670000       0.22210000
    36  H          0.32790000       0.49330000       0.77790000
    37  H          0.06090000       0.54760000       0.33210000
    38  H          0.56090000       0.95240000       0.66790000
    39  H          0.93910000       0.04760000       0.16790000
    40  H          0.43910000       0.45240000       0.83210000
    41  H          0.04920000       0.70310000       0.29350000
    42  H          0.54920000       0.79690000       0.70650000
    43  H          0.95080000       0.20310000       0.20650000
    44  H          0.45080000       0.29690000       0.79350000
    45  O          0.17388000       0.03885000       0.33492000
    46  O          0.67388000       0.46115000       0.66508000
    47  O          0.82612000       0.53885000       0.16508000
    48  O          0.32612000       0.96115000       0.83492000
    49  O          0.27248000       0.28015000       0.38882000
    50  O          0.77248000       0.21985000       0.61118000
    51  O          0.72752000       0.78015000       0.11118000
    52  O          0.22752000       0.71985000       0.88882000
    53  C          0.13701100       0.14676000       0.38112000
    54  C          0.63701100       0.35324000       0.61888000
    55  C          0.86298900       0.64676000       0.11888000
    56  C          0.36298900       0.85324000       0.88112000
    57  C          0.91661000       0.13687000       0.43353000
    58  C          0.41661000       0.36313000       0.56647000
    59  C          0.08339000       0.63687000       0.06647000
    60  C          0.58339000       0.86313000       0.93353000
    61  N          0.81609000       0.96816000       0.43442000
    62  N          0.31609000       0.53184000       0.56558000
    63  N          0.18391000       0.46816000       0.06558000
    64  N          0.68391000       0.03184000       0.93442000
    65  H          0.38730000       0.30150000       0.34690000
    66  H          0.88730000       0.19850000       0.65310000
    67  H          0.61270000       0.80150000       0.15310000
    68  H          0.11270000       0.69850000       0.84690000
    69  H         -0.00430000       0.18580000       0.49000000
    70  H          0.49570000       0.31420000       0.51000000
    71  H          0.00430000       0.68580000       0.01000000
    72  H          0.50430000       0.81420000       0.99000000
    73  H          0.79150000       0.21630000       0.42070000
    74  H          0.29150000       0.28370000       0.57930000
    75  H          0.20850000       0.71630000       0.07930000
    76  H          0.70850000       0.78370000       0.92070000
    77  H          0.95460000       0.89400000       0.46160000
    78  H          0.45460000       0.60600000       0.53840000
    79  H          0.04540000       0.39400000       0.03840000
    80  H          0.54540000       0.10600000       0.96160000
    81  H          0.67460000       0.96640000       0.45680000
    82  H          0.17460000       0.53360000       0.54320000
    83  H          0.32540000       0.46640000       0.04320000
    84  H          0.82540000       0.03360000       0.95680000
    85  H          0.79730000       0.91440000       0.39120000
    86  H          0.29730000       0.58560000       0.60880000
    87  H          0.20270000       0.41440000       0.10880000
    88  H          0.70270000       0.08560000       0.89120000
