data_DIBDOL
_symmetry_space_group_name_H-M    'P1'
_symmetry_Int_Tables_number       1
loop_
_symmetry_equiv_pos_site_id
_symmetry_equiv_pos_as_xyz
1 x,y,z
_cell_length_a                   6.974401
_cell_length_b                   7.241201
_cell_length_c                   16.159901
_cell_angle_alpha                98.51701
_cell_angle_beta                 94.97801
_cell_angle_gamma                110.63201
loop_
_atom_site_label
_atom_site_type_symbol
_atom_site_fract_x
_atom_site_fract_y
_atom_site_fract_z
     1  Cl         0.38074400       0.58046400       0.65397200
     2  Cl         0.61925600       0.41953600       0.34602800
     3  O          0.66767130       0.40495120       0.84833500
     4  O          0.33232870       0.59504880       0.15166500
     5  C          0.53642170       0.17308170       0.72075700
     6  C          0.46357830       0.82691830       0.27924300
     7  H          0.53640000       0.27920000       0.69460000
     8  H          0.46360000       0.72080000       0.30540000
     9  C          0.46940160       0.82365170       0.71364700
    10  C          0.53059840       0.17634830       0.28635300
    11  C          0.60430160       0.20933170       0.80789700
    12  C          0.39569840       0.79066830       0.19210300
    13  C          0.53591170       0.85671170       0.79980700
    14  C          0.46408830       0.14328830       0.20019300
    15  H          0.53440000       0.74980000       0.82570000
    16  H          0.46560000       0.25020000       0.17430000
    17  C          0.60500170       0.05089180       0.84733700
    18  C          0.39499830       0.94910820       0.15266300
    19  H          0.65130000       0.07480000       0.90510000
    20  H          0.34870000       0.92520000       0.09490000
    21  C          0.46956160      -0.01925830       0.67347700
    22  C          0.53043840       0.01925830       0.32652300
    23  H          0.42520000       0.95660000       0.61560000
    24  H          0.57480000       0.04340000       0.38440000
    25  C          0.71292000       0.44323190       0.93905700
    26  C          0.28708000       0.55676810       0.06094300
    27  H          0.82880000       0.40760000       0.95560000
    28  H          0.17120000       0.59240000       0.04440000
    29  H          0.59430000       0.36430000       0.96140000
    30  H          0.40570000       0.63570000       0.03860000
    31  H          0.74580000       0.58330000       0.96080000
    32  H          0.25420000       0.41670000       0.03920000
    33  N          0.25692160       0.18611140       0.53378600
    34  N          0.74307840       0.81388860       0.46621400
    35  N          0.83051830       0.59243850       0.14375600
    36  N          0.16948170       0.40756150       0.85624400
    37  N          0.19440160       0.66362150       0.44751600
    38  N          0.80559840       0.33637850       0.55248400
    39  N          0.83494820       0.07375180       0.04900600
    40  N          0.16505180       0.92624820       0.95099400
    41  C          0.03240160       0.96336830       0.32581700
    42  C          0.96759840       0.03663170       0.67418300
    43  H          0.03590000       0.85190000       0.34710000
    44  H          0.96410000       0.14810000       0.65290000
    45  C          0.18579170       0.17197160       0.46550700
    46  C          0.81420830       0.82802840       0.53449300
    47  C          0.95921840       0.94363830       0.24081700
    48  C          0.04078160       0.05636170       0.75918300
    49  C          0.95774840       0.11397170       0.20852700
    50  C          0.04225160       0.88602830       0.79147300
    51  C          0.09119160       0.31937160       0.34733700
    52  C          0.90880840       0.68062840       0.65266300
    53  C          0.15100170       0.51069170       0.40359700
    54  C          0.84899830       0.48930830       0.59640300
    55  C          0.10026160       0.15085160       0.37872700
    56  C          0.89973840       0.84914840       0.62127300
    57  C          0.88735830       0.74887820       0.18615700
    58  C          0.11264170       0.25112180       0.81384300
    59  C          0.02208170       0.30011170       0.26181700
    60  C         -0.02208170       0.69988830       0.73818300
    61  H          0.01910000       0.41170000       0.24050000
    62  H         -0.01910000       0.58830000       0.75950000
    63  C          0.88898820       0.09286180       0.11976700
    64  C          0.11101180       0.90713820       0.88023300
