data_DICDEA
_symmetry_space_group_name_H-M    'P1'
_symmetry_Int_Tables_number       1
loop_
_symmetry_equiv_pos_site_id
_symmetry_equiv_pos_as_xyz
1 x,y,z
_cell_length_a                   5.53195
_cell_length_b                   15.201215
_cell_length_c                   10.69281
_cell_angle_alpha                90.0
_cell_angle_beta                 104.5812
_cell_angle_gamma                90.0
loop_
_atom_site_label
_atom_site_type_symbol
_atom_site_fract_x
_atom_site_fract_y
_atom_site_fract_z
     1  O          0.42037000       0.93815900       0.08376150
     2  O          0.57963000       0.43815900       0.91623850
     3  O          0.42057000       0.98614880       0.27441150
     4  O          0.57943000       0.48614880       0.72558850
     5  O          0.23733000       0.22942100       0.15007140
     6  O          0.76267000       0.72942100       0.84992860
     7  N          0.50047000       0.98729880       0.17697160
     8  N          0.49953000       0.48729880       0.82302840
     9  C          0.69696000       0.04919130       0.17176190
    10  C          0.30304000       0.54919130       0.82823810
    11  C          0.76786000       0.11117150       0.27012000
    12  C          0.23214000       0.61117150       0.72988000
    13  H          0.69300000       0.11180000       0.33880000
    14  H          0.30700000       0.61180000       0.66120000
    15  C          0.95026000       0.17144140       0.26412000
    16  C          0.04974000       0.67144140       0.73588000
    17  H         -0.00170000       0.21320000       0.32920000
    18  H          0.00170000       0.71320000       0.67080000
    19  C          0.06524000       0.17072130       0.16060190
    20  C          0.93476000       0.67072130       0.83939810
    21  C         -0.00834000       0.10627130       0.06400190
    22  C          0.00834000       0.60627130       0.93599810
    23  H          0.06880000       0.10420000      -0.00380000
    24  H          0.93120000       0.60420000       0.00380000
    25  C          0.80716000       0.04612130       0.06825190
    26  C          0.19284000       0.54612130       0.93174810
    27  H          0.75750000       0.00440000       0.00330000
    28  H          0.24250000       0.50440000      -0.00330000
    29  H          0.30880000       0.27330000       0.25140000
    30  H          0.69120000       0.77330000       0.74860000
    31  O          0.11553000       0.63890100       0.41763150
    32  O          0.88447000       0.13890100       0.58236850
    33  O          0.15233000       0.59081110       0.23283150
    34  O          0.84767000       0.09081110       0.76716850
    35  O          0.36693000       0.32502110       0.33868140
    36  O          0.63307000       0.82502110       0.66131860
    37  N          0.05563000       0.58819110       0.32525170
    38  N          0.94437000       0.08819110       0.67474830
    39  C          0.86614000       0.52185140       0.32542000
    40  C          0.13386000       0.02185140       0.67458000
    41  C          0.74024000       0.52244140       0.42200190
    42  C          0.25976000       0.02244140       0.57799810
    43  H          0.77170000       0.56600000       0.48500000
    44  H          0.22830000       0.06600000       0.51500000
    45  C          0.56734000       0.45736150       0.42332000
    46  C          0.43266000       0.95736150       0.57668000
    47  H          0.47950000       0.45800000       0.48690000
    48  H          0.52050000       0.95800000       0.51310000
    49  C          0.52144000       0.39001140       0.33000190
    50  C          0.47856000       0.89001140       0.66999810
    51  C          0.64814000       0.39294150       0.23102000
    52  C          0.35186000       0.89294150       0.76898000
    53  H          0.61610000       0.35020000       0.16660000
    54  H          0.38390000       0.85020000       0.83340000
    55  C          0.81844000       0.45828150       0.22872000
    56  C          0.18156000       0.95828150       0.77128000
    57  H          0.90120000       0.46000000       0.16310000
    58  H          0.09880000       0.96000000       0.83690000
    59  N          0.31054000       0.29196120       0.58290190
    60  N          0.68946000       0.79196120       0.41709810
    61  H          0.37550000       0.28631700       0.50330000
    62  H          0.62450000       0.78631700       0.49670000
    63  N          0.44504000       0.21082170       0.91292000
    64  N          0.55496000       0.71082170       0.08708000
    65  H          0.58960000       0.17920000       0.91230000
    66  H          0.41040000       0.67920000       0.08770000
    67  H          0.37260000       0.22620000       0.97930000
    68  H          0.62740000       0.72620000       0.02070000
    69  N          0.02434000       0.31847140       0.89782000
    70  N         -0.02434000       0.81847140       0.10218000
    71  H          0.08360000       0.30120000       0.96930000
    72  H          0.91640000       0.80120000       0.03070000
    73  H          0.89430000       0.35320000       0.89140000
    74  H          0.10570000       0.85320000       0.10860000
    75  C          0.42054000       0.24904140       0.69362000
    76  C          0.57946000       0.74904140       0.30638000
    77  H          0.55940000       0.21420000       0.69530000
    78  H          0.44060000       0.71420000       0.30470000
    79  C          0.33614000       0.25479130       0.80332000
    80  C          0.66386000       0.75479130       0.19668000
    81  C          0.12004000       0.30949130       0.79642000
    82  C          0.87996000       0.80949130       0.20358000
    83  C          0.01494000       0.35233140       0.68042000
    84  C         -0.01494000       0.85233140       0.31958000
    85  H          0.87660000       0.38830000       0.67460000
    86  H          0.12340000       0.88830000       0.32540000
    87  C          0.11034000       0.34294140       0.57362000
    88  C          0.88966000       0.84294140       0.42638000
    89  H          0.03650000       0.37160000       0.49660000
    90  H          0.96350000       0.87160000       0.50340000
