data_DICDAW
_symmetry_space_group_name_H-M    'P1'
_symmetry_Int_Tables_number       1
loop_
_symmetry_equiv_pos_site_id
_symmetry_equiv_pos_as_xyz
1 x,y,z
_cell_length_a                   5.45884
_cell_length_b                   15.088212
_cell_length_c                   10.88159
_cell_angle_alpha                90.0
_cell_angle_beta                 104.21001
_cell_angle_gamma                90.0
loop_
_atom_site_label
_atom_site_type_symbol
_atom_site_fract_x
_atom_site_fract_y
_atom_site_fract_z
     1  O          0.67162000       0.31917900       0.72569110
     2  O          0.32838000       0.81917900       0.27430890
     3  H          0.79950000       0.61181800       0.75730000
     4  H          0.20050000       0.11181800       0.24270000
     5  O          0.65842000       0.27697800       0.91361110
     6  O          0.34158000       0.77697800       0.08638890
     7  O          0.84352000       0.57402900       0.82585120
     8  O          0.15648000       0.07402900       0.17414880
     9  N          0.58372000       0.32475900       0.82013130
    10  N          0.41628000       0.82475900       0.17986870
    11  C          0.38773000       0.38912110       0.81942150
    12  C          0.61227000       0.88912110       0.18057850
    13  C          0.31793000       0.44746110       0.71841150
    14  C          0.68207000       0.94746110       0.28158850
    15  H          0.39450000       0.44420000       0.65110000
    16  H          0.60550000       0.94420000       0.34890000
    17  C          0.13533000       0.51012110       0.71820150
    18  C          0.86467000       0.01012110       0.28179850
    19  H          0.08870000       0.54970000       0.65090000
    20  H          0.91130000       0.04970000       0.34910000
    21  C          0.01913000       0.51432110       0.81983150
    22  C         -0.01913000       0.01432110       0.18016850
    23  C          0.08993000       0.45362120       0.92006150
    24  C          0.91007000       0.95362120       0.07993850
    25  H          0.01140000       0.45540000      -0.01320000
    26  H         -0.01140000       0.95540000       0.01320000
    27  C          0.27493000       0.39150110       0.92021150
    28  C          0.72507000       0.89150110       0.07978850
    29  H          0.32340000       0.35170000      -0.01290000
    30  H          0.67660000       0.85170000       0.01290000
    31  O          0.90708000       0.92484900       0.78199120
    32  O          0.09292000       0.42484900       0.21800880
    33  O          0.92438000       0.97969800       0.60022110
    34  O          0.07562000       0.47969800       0.39977890
    35  O          0.72472000       0.68084800       0.64537100
    36  O          0.27528000       0.18084800       0.35462900
    37  N         -0.00272000       0.92643900       0.68858130
    38  N          0.00272000       0.42643900       0.31141870
    39  C          0.19173000       0.86400100       0.68026150
    40  C          0.80827000       0.36400100       0.31973850
    41  C          0.30733000       0.87060110       0.58012150
    42  C          0.69267000       0.37060110       0.41987850
    43  H          0.26250000       0.91560000       0.52040000
    44  H          0.73750000       0.41560000       0.47960000
    45  C          0.48923000       0.80946100       0.57074140
    46  C          0.51077000       0.30946100       0.42925860
    47  H          0.56820000       0.81390000       0.50440000
    48  H          0.43180000       0.31390000       0.49560000
    49  C          0.55843000       0.74017110       0.65970140
    50  C          0.44157000       0.24017110       0.34029860
    51  C          0.43943000       0.73709120       0.76155150
    52  C          0.56057000       0.23709120       0.23844850
    53  H          0.48440000       0.69290000       0.82250000
    54  H          0.51560000       0.19290000       0.17750000
    55  C          0.25923000       0.79797110       0.77195150
    56  C          0.74077000       0.29797110       0.22804850
    57  H          0.18290000       0.79530000       0.83940000
    58  H          0.81710000       0.29530000       0.16060000
    59  N          0.93643000       0.67759100       0.22018140
    60  N          0.06357000       0.17759100       0.77981860
    61  H          0.09040000       0.71381500       0.23020000
    62  H          0.90960000       0.21381500       0.76980000
    63  N          0.93853000       0.70527100       0.43028140
    64  N          0.06147000       0.20527100       0.56971860
    65  H          0.87540000       0.70261400       0.49620000
    66  H          0.12460000       0.20261400       0.50380000
    67  H          0.06640000       0.73131400       0.43581900
    68  H          0.93360000       0.23131400       0.56418100
    69  N          0.50263000       0.60005100       0.40044150
    70  N          0.49737000       0.10005100       0.59955850
    71  H          0.57340000       0.62151300       0.48311900
    72  H          0.42660000       0.12151300       0.51688100
    73  H          0.38340000       0.55991400       0.39381800
    74  H          0.61660000       0.05991400       0.60618200
    75  C          0.83473000       0.66530100       0.31970150
    76  C          0.16527000       0.16530100       0.68029850
    77  C          0.61713000       0.61004100       0.30373150
    78  C          0.38287000       0.11004100       0.69626850
    79  C          0.64624000       0.58502130       0.08764160
    80  C          0.35376000       0.08502130       0.91235840
    81  H          0.58340000       0.55790000       0.00950000
    82  H          0.41660000       0.05790000      -0.00950000
    83  C          0.84823000       0.63887130       0.10524170
    84  C          0.15177000       0.13887130       0.89475830
    85  H          0.92610000       0.64940000       0.03970000
    86  H          0.07390000       0.14940000       0.96030000
    87  C          0.52983000       0.56966110       0.18808170
    88  C          0.47017000       0.06966110       0.81191830
    89  H          0.39180000       0.53160000       0.17580000
    90  H          0.60820000       0.03160000       0.82420000
