data_DIDETS01
_symmetry_space_group_name_H-M    'P1'
_symmetry_Int_Tables_number       1
loop_
_symmetry_equiv_pos_site_id
_symmetry_equiv_pos_as_xyz
1 x,y,z
_cell_length_a                   6.01
_cell_length_b                   6.01
_cell_length_c                   29.4
_cell_angle_alpha                90.0
_cell_angle_beta                 90.0
_cell_angle_gamma                90.0
loop_
_atom_site_label
_atom_site_type_symbol
_atom_site_fract_x
_atom_site_fract_y
_atom_site_fract_z
     1  S          0.67400000       0.30100000       0.06700000
     2  S          0.19900000       0.67400000       0.31700000
     3  S          0.82600000       0.19900000       0.56700000
     4  S          0.30100000       0.82600000       0.81700000
     5  S          0.69900000       0.32600000       0.18300000
     6  S          0.17400000       0.69900000       0.43300000
     7  S          0.80100000       0.17400000       0.68300000
     8  S          0.32600000       0.80100000       0.93300000
     9  S          0.55400000       0.44600000       0.12500000
    10  S          0.05400000       0.55400000       0.37500000
    11  S          0.94600000       0.05400000       0.62500000
    12  S          0.44600000       0.94600000       0.87500000
    13  I          0.11500000       0.75000000       0.05200000
    14  I          0.75000000       0.11500000       0.30200000
    15  I          0.38500000       0.75000000       0.55200000
    16  I          0.75000000       0.38500000       0.80200000
    17  I          0.25000000       0.88500000       0.19800000
    18  I          0.61500000       0.25000000       0.44800000
    19  I          0.25000000       0.61500000       0.69800000
    20  I          0.88500000       0.25000000       0.94800000
    21  C          0.27500000       0.05800000       0.04700000
    22  C          0.44200000       0.27500000       0.29700000
    23  C          0.22500000       0.44200000       0.54700000
    24  C          0.05800000       0.22500000       0.79700000
    25  C          0.94200000       0.72500000       0.20300000
    26  C          0.77500000       0.94200000       0.45300000
    27  C          0.55800000       0.77500000       0.70300000
    28  C          0.72500000       0.55800000       0.95300000
    29  C          0.50900000       0.04000000       0.06900000
    30  C          0.46000000       0.50900000       0.31900000
    31  C         -0.00900000       0.46000000       0.56900000
    32  C          0.04000000      -0.00900000       0.81900000
    33  C          0.96000000       0.49100000       0.18100000
    34  C          0.00900000       0.96000000       0.43100000
    35  C          0.54000000       0.00900000       0.68100000
    36  C          0.49100000       0.54000000       0.93100000
