data_DIFHAD
_symmetry_space_group_name_H-M    'P1'
_symmetry_Int_Tables_number       1
loop_
_symmetry_equiv_pos_site_id
_symmetry_equiv_pos_as_xyz
1 x,y,z
_cell_length_a                   9.66529
_cell_length_b                   20.069018
_cell_length_c                   15.774415
_cell_angle_alpha                90.0
_cell_angle_beta                 90.0
_cell_angle_gamma                90.0
loop_
_atom_site_label
_atom_site_type_symbol
_atom_site_fract_x
_atom_site_fract_y
_atom_site_fract_z
     1  Br         0.24791170       0.75000000       0.06253100
     2  Br         0.25208830       0.25000000       0.56253100
     3  Br         0.75208830       0.25000000       0.93746900
     4  Br         0.74791170       0.75000000       0.43746900
     5  Br         0.39751120       0.46592600       0.26090800
     6  Br         0.10248880       0.53407400       0.76090800
     7  Br         0.60248880       0.96592600       0.73909200
     8  Br         0.89751120       0.03407400       0.23909200
     9  Br         0.60248880       0.53407400       0.73909200
    10  Br         0.89751120       0.46592600       0.23909200
    11  Br         0.39751120       0.03407400       0.26090800
    12  Br         0.10248880       0.96592600       0.76090800
    13  Br         0.17851130       0.39928700       0.00838900
    14  Br         0.32148870       0.60071300       0.50838900
    15  Br         0.82148870       0.89928700      -0.00838900
    16  Br         0.67851130       0.10071300       0.49161100
    17  Br         0.82148870       0.60071300      -0.00838900
    18  Br         0.67851130       0.39928700       0.49161100
    19  Br         0.17851130       0.10071300       0.00838900
    20  Br         0.32148870       0.89928700       0.50838900
    21  C          0.93568700       0.75000000       0.24409000
    22  C          0.56431300       0.25000000       0.74409000
    23  C          0.06431300       0.25000000       0.75591000
    24  C          0.43568700       0.75000000       0.25591000
    25  H          0.89210000       0.75000000       0.30080000
    26  H          0.60790000       0.25000000       0.80080000
    27  H          0.10790000       0.25000000       0.69920000
    28  H          0.39210000       0.75000000       0.19920000
    29  H          0.86110000       0.75000000       0.20100000
    30  H          0.63890000       0.25000000       0.70100000
    31  H          0.13890000       0.25000000       0.79900000
    32  H          0.36110000       0.75000000       0.29900000
    33  C          0.02491000       0.65325000       0.16396000
    34  C          0.47509000       0.34675000       0.66396000
    35  C          0.97509000       0.15325000       0.83604000
    36  C          0.52491000       0.84675000       0.33604000
    37  C          0.97509000       0.34675000       0.83604000
    38  C          0.52491000       0.65325000       0.33604000
    39  C          0.02491000       0.84675000       0.16396000
    40  C          0.47509000       0.15325000       0.66396000
    41  H          0.97620000       0.66270000       0.11290000
    42  H          0.52380000       0.33730000       0.61290000
    43  H          0.02380000       0.16270000       0.88710000
    44  H          0.47620000       0.83730000       0.38710000
    45  H          0.02380000       0.33730000       0.88710000
    46  H          0.47620000       0.66270000       0.38710000
    47  H          0.97620000       0.83730000       0.11290000
    48  H          0.52380000       0.16270000       0.61290000
    49  C          0.10541100       0.66106000       0.29517000
    50  C          0.39458900       0.33894000       0.79517000
    51  C          0.89458900       0.16106000       0.70483000
    52  C          0.60541100       0.83894000       0.20483000
    53  C          0.89458900       0.33894000       0.70483000
    54  C          0.60541100       0.66106000       0.20483000
    55  C          0.10541100       0.83894000       0.29517000
    56  C          0.39458900       0.16106000       0.79517000
    57  H          0.12160000       0.67700000       0.35090000
    58  H          0.37840000       0.32300000       0.85090000
    59  H          0.87840000       0.17700000       0.64910000
    60  H          0.62160000       0.82300000       0.14910000
    61  H          0.87840000       0.32300000       0.64910000
    62  H          0.62160000       0.67700000       0.14910000
    63  H          0.12160000       0.82300000       0.35090000
    64  H          0.37840000       0.17700000       0.85090000
    65  C          0.16021100       0.60555000       0.25848000
    66  C          0.33978900       0.39445000       0.75848000
    67  C          0.83978900       0.10555000       0.74152000
    68  C          0.66021100       0.89445000       0.24152000
    69  C          0.83978900       0.39445000       0.74152000
    70  C          0.66021100       0.60555000       0.24152000
    71  C          0.16021100       0.89445000       0.25848000
    72  C          0.33978900       0.10555000       0.75848000
    73  H          0.22260000       0.57510000       0.28430000
    74  H          0.27740000       0.42490000       0.78430000
    75  H          0.77740000       0.07510000       0.71570000
    76  H          0.72260000       0.92490000       0.21570000
    77  H          0.77740000       0.42490000       0.71570000
    78  H          0.72260000       0.57510000       0.21570000
    79  H          0.22260000       0.92490000       0.28430000
    80  H          0.27740000       0.07510000       0.78430000
    81  C          0.13501000       0.54825000       0.11666000
    82  C          0.36499000       0.45175000       0.61666000
    83  C          0.86499000       0.04825000       0.88334000
    84  C          0.63501000       0.95175000       0.38334000
    85  C          0.86499000       0.45175000       0.88334000
    86  C          0.63501000       0.54825000       0.38334000
    87  C          0.13501000       0.95175000       0.11666000
    88  C          0.36499000       0.04825000       0.61666000
    89  H          0.04810000       0.53700000       0.08670000
    90  H          0.45190000       0.46300000       0.58670000
    91  H          0.95190000       0.03700000       0.91330000
    92  H          0.54810000       0.96300000       0.41330000
    93  H          0.95190000       0.46300000       0.91330000
    94  H          0.54810000       0.53700000       0.41330000
    95  H          0.04810000       0.96300000       0.08670000
    96  H          0.45190000       0.03700000       0.58670000
    97  H          0.16660000       0.50790000       0.14730000
    98  H          0.33340000       0.49210000       0.64730000
    99  H          0.83340000       0.00790000       0.85270000
   100  H          0.66660000       0.99210000       0.35270000
   101  H          0.83340000       0.49210000       0.85270000
   102  H          0.66660000       0.50790000       0.35270000
   103  H          0.16660000       0.99210000       0.14730000
   104  H          0.33340000       0.00790000       0.64730000
   105  C          0.21571200       0.59116000       0.97782000
   106  C          0.28428800       0.40884000       0.47782000
   107  C          0.78428800       0.09116000       0.02218000
   108  C          0.71571200       0.90884000       0.52218000
   109  C          0.78428800       0.40884000       0.02218000
   110  C          0.71571200       0.59116000       0.52218000
   111  C          0.21571200       0.90884000       0.97782000
   112  C          0.28428800       0.09116000       0.47782000
   113  H          0.12670000       0.59780000       0.95380000
   114  H          0.37330000       0.40220000       0.45380000
   115  H          0.87330000       0.09780000       0.04620000
   116  H          0.62670000       0.90220000       0.54620000
   117  H          0.87330000       0.40220000       0.04620000
   118  H          0.62670000       0.59780000       0.54620000
   119  H          0.12670000       0.90220000       0.95380000
   120  H          0.37330000       0.09780000       0.45380000
   121  C          0.38301200       0.56405000       0.06679000
   122  C          0.11698800       0.43595000       0.56679000
   123  C          0.61698800       0.06405000       0.93321000
   124  C          0.88301200       0.93595000       0.43321000
   125  C          0.61698800       0.43595000       0.93321000
   126  C          0.88301200       0.56405000       0.43321000
   127  C          0.38301200       0.93595000       0.06679000
   128  C          0.11698800       0.06405000       0.56679000
   129  H          0.43230000       0.54870000       0.11500000
   130  H          0.06770000       0.45130000       0.61500000
   131  H          0.56770000       0.04870000       0.88500000
   132  H          0.93230000       0.95130000       0.38500000
   133  H          0.56770000       0.45130000       0.88500000
   134  H          0.93230000       0.54870000       0.38500000
   135  H          0.43230000       0.95130000       0.11500000
   136  H          0.06770000       0.04870000       0.61500000
   137  C          0.43481400       0.58735000      -0.00761000
   138  C          0.06518600       0.41265000       0.49239000
   139  C          0.56518600       0.08735000       0.00761000
   140  C          0.93481400       0.91265000       0.50761000
   141  C          0.56518600       0.41265000       0.00761000
   142  C          0.93481400       0.58735000       0.50761000
   143  C          0.43481400       0.91265000      -0.00761000
   144  C          0.06518600       0.08735000       0.49239000
   145  H          0.53080000       0.59130000       0.98030000
   146  H          0.96920000       0.40870000       0.48030000
   147  H          0.46920000       0.09130000       0.01970000
   148  H          0.03080000       0.90870000       0.51970000
   149  H          0.46920000       0.40870000       0.01970000
   150  H          0.03080000       0.59130000       0.51970000
   151  H          0.53080000       0.90870000       0.98030000
   152  H          0.96920000       0.09130000       0.48030000
   153  C          0.35521300       0.63337000       0.85152000
   154  C          0.14478700       0.36663000       0.35152000
   155  C          0.64478700       0.13337000       0.14848000
   156  C          0.85521300       0.86663000       0.64848000
   157  C          0.64478700       0.36663000       0.14848000
   158  C          0.85521300       0.63337000       0.64848000
   159  C          0.35521300       0.86663000       0.85152000
   160  C          0.14478700       0.13337000       0.35152000
   161  H          0.42390000       0.60680000       0.81940000
   162  H          0.07610000       0.39320000       0.31940000
   163  H          0.57610000       0.10680000       0.18060000
   164  H          0.92390000       0.89320000       0.68060000
   165  H          0.57610000       0.39320000       0.18060000
   166  H          0.92390000       0.60680000       0.68060000
   167  H          0.42390000       0.89320000       0.81940000
   168  H          0.07610000       0.10680000       0.31940000
   169  H          0.26650000       0.63230000       0.82020000
   170  H          0.23350000       0.36770000       0.32020000
   171  H          0.73350000       0.13230000       0.17980000
   172  H          0.76650000       0.86770000       0.67980000
   173  H          0.73350000       0.36770000       0.17980000
   174  H          0.76650000       0.63230000       0.67980000
   175  H          0.26650000       0.86770000       0.82020000
   176  H          0.23350000       0.13230000       0.32020000
   177  C          0.54491400       0.71645000       0.86353000
   178  C          0.95508600       0.28355000       0.36353000
   179  C          0.45508600       0.21645000       0.13647000
   180  C          0.04491400       0.78355000       0.63647000
   181  C          0.45508600       0.28355000       0.13647000
   182  C          0.04491400       0.71645000       0.63647000
   183  C          0.54491400       0.78355000       0.86353000
   184  C          0.95508600       0.21645000       0.36353000
   185  H          0.62230000       0.68730000       0.86580000
   186  H          0.87770000       0.31270000       0.36580000
   187  H          0.37770000       0.18730000       0.13420000
   188  H          0.12230000       0.81270000       0.63420000
   189  H          0.37770000       0.31270000       0.13420000
   190  H          0.12230000       0.68730000       0.63420000
   191  H          0.62230000       0.81270000       0.86580000
   192  H          0.87770000       0.18730000       0.36580000
   193  C          0.32220000       0.75000000       0.85638800
   194  C          0.17780000       0.25000000       0.35638800
   195  C          0.67780000       0.25000000       0.14361200
   196  C          0.82220000       0.75000000       0.64361200
   197  H          0.22430000       0.75000000       0.85260000
   198  H          0.27570000       0.25000000       0.35260000
   199  H          0.77570000       0.25000000       0.14740000
   200  H          0.72430000       0.75000000       0.64740000
   201  N          0.02148000       0.68924000       0.23416000
   202  N          0.47852000       0.31076000       0.73416000
   203  N          0.97852000       0.18924000       0.76584000
   204  N          0.52148000       0.81076000       0.26584000
   205  N          0.97852000       0.31076000       0.76584000
   206  N          0.52148000       0.68924000       0.26584000
   207  N          0.02148000       0.81076000       0.23416000
   208  N          0.47852000       0.18924000       0.73416000
   209  N          0.10898000       0.60124000       0.17696000
   210  N          0.39102000       0.39876000       0.67696000
   211  N          0.89102000       0.10124000       0.82304000
   212  N          0.60898000       0.89876000       0.32304000
   213  N          0.89102000       0.39876000       0.82304000
   214  N          0.60898000       0.60124000       0.32304000
   215  N          0.10898000       0.89876000       0.17696000
   216  N          0.39102000       0.10124000       0.67696000
   217  N          0.23959000       0.56774000       0.05516000
   218  N          0.26041000       0.43226000       0.55516000
   219  N          0.76041000       0.06774000       0.94484000
   220  N          0.73959000       0.93226000       0.44484000
   221  N          0.76041000       0.43226000       0.94484000
   222  N          0.73959000       0.56774000       0.44484000
   223  N          0.23959000       0.93226000       0.05516000
   224  N          0.26041000       0.06774000       0.55516000
   225  N          0.33581100       0.60375000       0.93912000
   226  N          0.16418900       0.39625000       0.43912000
   227  N          0.66418900       0.10375000       0.06088000
   228  N          0.83581100       0.89625000       0.56088000
   229  N          0.66418900       0.39625000       0.06088000
   230  N          0.83581100       0.60375000       0.56088000
   231  N          0.33581100       0.89625000       0.93912000
   232  N          0.16418900       0.10375000       0.43912000
   233  N          0.40131200       0.69916000       0.85923000
   234  N          0.09868800       0.30084000       0.35923000
   235  N          0.59868800       0.19916000       0.14077000
   236  N          0.90131200       0.80084000       0.64077000
   237  N          0.59868800       0.30084000       0.14077000
   238  N          0.90131200       0.69916000       0.64077000
   239  N          0.40131200       0.80084000       0.85923000
   240  N          0.09868800       0.19916000       0.35923000
   241  F          0.23001000       0.25000000       0.93776000
   242  F          0.26999000       0.75000000       0.43776000
   243  F          0.76999000       0.75000000       0.06224000
   244  F          0.73001000       0.25000000       0.56224000
   245  O          0.47620000       0.68717000       0.65928000
   246  O          0.02380000       0.31283000       0.15928000
   247  O          0.52380000       0.18717000       0.34072000
   248  O          0.97620000       0.81283000       0.84072000
   249  O          0.52380000       0.31283000       0.34072000
   250  O          0.97620000       0.68717000       0.84072000
   251  O          0.47620000       0.81283000       0.65928000
   252  O          0.02380000       0.18717000       0.15928000
   253  H          0.47980000       0.75000000       0.65970000
   254  H          0.02020000       0.25000000       0.15970000
   255  H          0.52020000       0.25000000       0.34030000
   256  H          0.97980000       0.75000000       0.84030000
   257  H          0.45630000       0.65500000       0.61500000
   258  H          0.04370000       0.34500000       0.11500000
   259  H          0.54370000       0.15500000       0.38500000
   260  H          0.95630000       0.84500000       0.88500000
   261  H          0.54370000       0.34500000       0.38500000
   262  H          0.95630000       0.65500000       0.88500000
   263  H          0.45630000       0.84500000       0.61500000
   264  H          0.04370000       0.15500000       0.11500000
   265  H          0.52500000       0.65500000       0.69810000
   266  H          0.97500000       0.34500000       0.19810000
   267  H          0.47500000       0.15500000       0.30190000
   268  H          0.02500000       0.84500000       0.80190000
   269  H          0.47500000       0.34500000       0.30190000
   270  H          0.02500000       0.65500000       0.80190000
   271  H          0.52500000       0.84500000       0.69810000
   272  H          0.97500000       0.15500000       0.19810000
