data_DIJVUN01
_symmetry_space_group_name_H-M    'P1'
_symmetry_Int_Tables_number       1
loop_
_symmetry_equiv_pos_site_id
_symmetry_equiv_pos_as_xyz
1 x,y,z
_cell_length_a                   12.681713
_cell_length_b                   7.74928
_cell_length_c                   16.086416
_cell_angle_alpha                90.0
_cell_angle_beta                 94.3005
_cell_angle_gamma                90.0
loop_
_atom_site_label
_atom_site_type_symbol
_atom_site_fract_x
_atom_site_fract_y
_atom_site_fract_z
     1  C          0.22380900       0.53089140       0.53893700
     2  C          0.77619100       0.03089140       0.96106300
     3  C          0.77619100       0.46910860       0.46106300
     4  C          0.22380900       0.96910860       0.03893700
     5  O          0.35622700       0.38663120       0.47184500
     6  O          0.64377300       0.88663120       0.02815500
     7  O          0.64377300       0.61336880       0.52815500
     8  O          0.35622700       0.11336880       0.97184500
     9  H          0.42421700       0.32830000       0.47991300
    10  H          0.57578300       0.82830000       0.02008700
    11  H          0.57578300       0.67170000       0.52008700
    12  H          0.42421700       0.17170000       0.97991300
    13  O          0.36849700       0.38527110       0.61169500
    14  O          0.63150300       0.88527110       0.88830500
    15  O          0.63150300       0.61472890       0.38830500
    16  O          0.36849700       0.11472890       0.11169500
    17  C          0.17990900       0.57776140       0.61219700
    18  C          0.82009100       0.07776140       0.88780300
    19  C          0.82009100       0.42223860       0.38780300
    20  C          0.17990900       0.92223860       0.11219700
    21  H          0.21140000       0.54240000       0.66490000
    22  H          0.78860000       0.04240000       0.83510000
    23  H          0.78860000       0.45760000       0.33510000
    24  H          0.21140000       0.95760000       0.16490000
    25  C          0.08920900       0.67716150       0.60643700
    26  C          0.91079100       0.17716150       0.89356300
    27  C          0.91079100       0.32283850       0.39356300
    28  C          0.08920900       0.82283850       0.10643700
    29  N          0.04389800       0.73056140       0.68400700
    30  N          0.95610200       0.23056140       0.81599300
    31  N          0.95610200       0.26943860       0.31599300
    32  N          0.04389800       0.76943860       0.18400700
    33  O          0.09130900       0.69254150       0.75039600
    34  O          0.90869100       0.19254150       0.74960400
    35  O          0.90869100       0.30745850       0.24960400
    36  O          0.09130900       0.80745850       0.25039600
    37  O          0.96151200       0.81296160       0.67900700
    38  O          0.03848800       0.31296160       0.82099300
    39  O          0.03848800       0.18703840       0.32099300
    40  O          0.96151200       0.68703840       0.17900700
    41  C          0.03960900       0.73001160       0.53105800
    42  C          0.96039100       0.23001160       0.96894200
    43  C          0.96039100       0.26998840       0.46894200
    44  C          0.03960900       0.76998840       0.03105800
    45  H          0.97690000       0.79740000       0.52910000
    46  H          0.02310000       0.29740000       0.97090000
    47  H          0.02310000       0.20260000       0.47090000
    48  H          0.97690000       0.70260000       0.02910000
    49  C          0.08413100       0.68168160       0.45852700
    50  C          0.91586900       0.18168160       0.04147300
    51  C          0.91586900       0.31831840       0.54147300
    52  C          0.08413100       0.81831840       0.95852700
    53  H          0.05160000       0.71590000       0.40600000
    54  H          0.94840000       0.21590000       0.09400000
    55  H          0.94840000       0.28410000       0.59400000
    56  H          0.05160000       0.78410000       0.90600000
    57  C          0.17609900       0.58352150       0.46214700
    58  C          0.82390100       0.08352150       0.03785300
    59  C          0.82390100       0.41647850       0.53785300
    60  C          0.17609900       0.91647850       0.96214700
    61  H          0.20660000       0.55210000       0.41210000
    62  H          0.79340000       0.05210000       0.08790000
    63  H          0.79340000       0.44790000       0.58790000
    64  H          0.20660000       0.94790000       0.91210000
    65  C          0.32330900       0.42651150       0.54535700
    66  C          0.67669100       0.92651150       0.95464300
    67  C          0.67669100       0.57348850       0.45464300
    68  C          0.32330900       0.07348850       0.04535700
    69  N          0.66924800       0.06858130       0.54748600
    70  N          0.33075200       0.56858130       0.95251400
    71  N          0.33075200       0.93141870       0.45251400
    72  N          0.66924800       0.43141870       0.04748600
    73  C          0.58522100       0.16952150       0.55496700
    74  C          0.41477900       0.66952150       0.94503300
    75  C          0.41477900       0.83047850       0.44503300
    76  C          0.58522100       0.33047850       0.05496700
    77  H          0.56090000       0.20230000       0.60710000
    78  H          0.43910000       0.70230000       0.89290000
    79  H          0.43910000       0.79770000       0.39290000
    80  H          0.56090000       0.29770000       0.10710000
    81  N          0.53885800       0.21977130       0.48156600
    82  N          0.46114200       0.71977130       0.01843400
    83  N          0.46114200       0.78022870       0.51843400
    84  N          0.53885800       0.28022870       0.98156600
    85  C          0.59904900       0.14635140       0.42480700
    86  C          0.40095100       0.64635140       0.07519300
    87  C          0.40095100       0.85364860       0.57519300
    88  C          0.59904900       0.35364860       0.92480700
    89  N          0.58603700       0.16477120       0.33968600
    90  N          0.41396300       0.66477120       0.16031400
    91  N          0.41396300       0.83522880       0.66031400
    92  N          0.58603700       0.33522880       0.83968600
    93  C          0.65894900       0.09110140       0.29087700
    94  C          0.34105100       0.59110140       0.20912300
    95  C          0.34105100       0.90889860       0.70912300
    96  C          0.65894900       0.40889860       0.79087700
    97  O          0.65450700       0.11397120       0.21565500
    98  O          0.34549300       0.61397120       0.28434500
    99  O          0.34549300       0.88602880       0.78434500
   100  O          0.65450700       0.38602880       0.71565500
   101  N          0.73709700      -0.01248120       0.33129600
   102  N          0.26290300       0.48751880       0.16870400
   103  N          0.26290300       0.01248120       0.66870400
   104  N          0.73709700       0.51248120       0.83129600
   105  C          0.75569900       0.96224860       0.41776700
   106  C          0.24430100       0.46224860       0.08223300
   107  C          0.24430100       0.03775140       0.58223300
   108  C          0.75569900       0.53775140       0.91776700
   109  O          0.82925700       0.87392890       0.44668500
   110  O          0.17074300       0.37392890       0.05331500
   111  O          0.17074300       0.12607110       0.55331500
   112  O          0.82925700       0.62607110       0.94668500
   113  C          0.67968900       0.05125140       0.46276700
   114  C          0.32031100       0.55125140       0.03723300
   115  C          0.32031100       0.94874860       0.53723300
   116  C          0.67968900       0.44874860       0.96276700
   117  C          0.73772110      -0.00627180       0.61551700
   118  C          0.26227890       0.49372820       0.88448300
   119  C          0.26227890       0.00627180       0.38448300
   120  C          0.73772110       0.50627180       0.11551700
   121  H          0.71510000       0.03430000       0.66910000
   122  H          0.28490000       0.53430000       0.83090000
   123  H          0.28490000       0.96570000       0.33090000
   124  H          0.71510000       0.46570000       0.16910000
   125  H          0.81100000       0.02920000       0.60990000
   126  H          0.18900000       0.52920000       0.89010000
   127  H          0.18900000       0.97080000       0.39010000
   128  H          0.81100000       0.47080000       0.10990000
   129  H          0.73290000       0.86760000       0.61310000
   130  H          0.26710000       0.36760000       0.88690000
   131  H          0.26710000       0.13240000       0.38690000
   132  H          0.73290000       0.63240000       0.11310000
   133  C          0.50415100       0.27731170       0.29990700
   134  C          0.49584900       0.77731170       0.20009300
   135  C          0.49584900       0.72268830       0.70009300
   136  C          0.50415100       0.22268830       0.79990700
   137  H          0.53620000       0.38640000       0.28400000
   138  H          0.46380000       0.88640000       0.21600000
   139  H          0.46380000       0.61360000       0.71600000
   140  H          0.53620000       0.11360000       0.78400000
   141  H          0.45020000       0.30030000       0.33900000
   142  H          0.54980000       0.80030000       0.16100000
   143  H          0.54980000       0.69970000       0.66100000
   144  H          0.45020000       0.19970000       0.83900000
   145  H          0.47130000       0.22040000       0.25010000
   146  H          0.52870000       0.72040000       0.24990000
   147  H          0.52870000       0.77960000       0.74990000
   148  H          0.47130000       0.27960000       0.75010000
   149  C          0.80693100       0.89558830       0.27746800
   150  C          0.19306900       0.39558830       0.22253200
   151  C          0.19306900       0.10441170       0.72253200
   152  C          0.80693100       0.60441170       0.77746800
   153  H          0.76410000       0.83450000       0.23360000
   154  H          0.23590000       0.33450000       0.26640000
   155  H          0.23590000       0.16550000       0.76640000
   156  H          0.76410000       0.66550000       0.73360000
   157  H          0.85010000       0.81230000       0.31080000
   158  H          0.14990000       0.31230000       0.18920000
   159  H          0.14990000       0.18770000       0.68920000
   160  H          0.85010000       0.68770000       0.81080000
   161  H          0.85310000       0.97860000       0.25210000
   162  H          0.14690000       0.47860000       0.24790000
   163  H          0.14690000       0.02140000       0.74790000
   164  H          0.85310000       0.52140000       0.75210000
