data_DINRUP01
_symmetry_space_group_name_H-M    'P1'
_symmetry_Int_Tables_number       1
loop_
_symmetry_equiv_pos_site_id
_symmetry_equiv_pos_as_xyz
1 x,y,z
_cell_length_a                   5.84119
_cell_length_b                   8.169514
_cell_length_c                   13.418119
_cell_angle_alpha                96.6175
_cell_angle_beta                 91.3534
_cell_angle_gamma                94.7537
loop_
_atom_site_label
_atom_site_type_symbol
_atom_site_fract_x
_atom_site_fract_y
_atom_site_fract_z
     1  C          0.37253000       0.42972000       0.23386140
     2  C          0.62747000       0.57028000       0.76613860
     3  C          0.16463000       0.32932000       0.21337140
     4  C          0.83537000       0.67068000       0.78662860
     5  C          0.12723000       0.22922000       0.12345140
     6  C          0.87277000       0.77078000       0.87654860
     7  H         -0.01100000       0.16410000       0.11050000
     8  H          0.01100000       0.83590000       0.88950000
     9  C          0.29593000       0.22562000       0.05241140
    10  C          0.70407000       0.77438000       0.94758860
    11  C          0.50233000       0.32452000       0.07214150
    12  C          0.49767000       0.67548000       0.92785850
    13  H          0.61570000       0.32240000       0.02460000
    14  H          0.38430000       0.67760000       0.97540000
    15  C          0.53843000       0.42432000       0.16078150
    16  C          0.46157000       0.57568000       0.83921850
    17  H          0.67630000       0.49000000       0.17270000
    18  H          0.32370000       0.51000000       0.82730000
    19  C          0.40983000       0.53432000       0.32939140
    20  C          0.59017000       0.46568000       0.67060860
    21  O          0.60932000       0.62287170       0.34150100
    22  O          0.39068000       0.37712830       0.65849900
    23  H          0.61250000       0.68370000       0.39470000
    24  H          0.38750000       0.31630000       0.60530000
    25  O          0.26512000       0.53975170       0.39524100
    26  O          0.73488000       0.46024830       0.60475900
    27  O          0.25283000       0.12422000       0.96699890
    28  O          0.74717000       0.87578000       0.03300110
    29  H          0.35970000       0.13600000       0.92920000
    30  H          0.64030000       0.86400000       0.07080000
    31  O         -0.00232000       0.32635190       0.28172110
    32  O          0.00232000       0.67364810       0.71827890
    33  H          0.03590000       0.39350000       0.33070000
    34  H          0.96410000       0.60650000       0.66930000
    35  C          0.63833000       0.97292000       0.66199130
    36  C          0.36167000       0.02708000       0.33800870
    37  C          0.50993000       0.00262000       0.74669140
    38  C          0.49007000      -0.00262000       0.25330860
    39  H          0.36580000       0.94530000       0.74790000
    40  H          0.63420000       0.05470000       0.25210000
    41  C          0.79024000       0.18763000       0.82410150
    42  C          0.20976000       0.81237000       0.17589850
    43  H          0.84370000       0.26030000       0.87980000
    44  H          0.15630000       0.73970000       0.12020000
    45  C          0.93084000       0.16683000       0.74342160
    46  C          0.06916000       0.83317000       0.25657840
    47  H          0.07510000       0.22460000       0.74460000
    48  H          0.92490000       0.77540000       0.25540000
    49  C          0.85283000       0.05882000       0.66116150
    50  C          0.14717000       0.94118000       0.33883850
    51  H          0.94340000       0.04350000       0.60530000
    52  H          0.05660000       0.95650000       0.39470000
    53  C          0.55743000       0.85242000       0.57340140
    54  C          0.44257000       0.14758000       0.42659860
    55  N          0.35343000       0.76842000       0.57569120
    56  N          0.64657000       0.23158000       0.42430880
    57  H          0.30390000       0.69870000       0.52530000
    58  H          0.69610000       0.30130000       0.47470000
    59  H          0.27070000       0.78360000       0.62760000
    60  H          0.72930000       0.21640000       0.37240000
    61  N          0.58113000       0.10872000       0.82656120
    62  N          0.41887000       0.89128000       0.17343880
    63  O          0.68042000       0.83351170       0.50009100
    64  O          0.31958000       0.16648830       0.49990900
