data_DINSOK01
_symmetry_space_group_name_H-M    'P1'
_symmetry_Int_Tables_number       1
loop_
_symmetry_equiv_pos_site_id
_symmetry_equiv_pos_as_xyz
1 x,y,z
_cell_length_a                   6.807214
_cell_length_b                   9.483119
_cell_length_c                   24.0165
_cell_angle_alpha                90.0
_cell_angle_beta                 94.4594
_cell_angle_gamma                90.0
loop_
_atom_site_label
_atom_site_type_symbol
_atom_site_fract_x
_atom_site_fract_y
_atom_site_fract_z
     1  C          0.54653000       0.45501170       0.30764700
     2  C          0.95347000       0.95501170       0.19235300
     3  C          0.45347000       0.54498830       0.69235300
     4  C          0.04653000       0.04498830       0.80764700
     5  C          0.36803000       0.47197190       0.27752800
     6  C          0.13197000       0.97197190       0.22247200
     7  C          0.63197000       0.52802810       0.72247200
     8  C          0.86803000       0.02802810       0.77752800
     9  H          0.26040000       0.41800000       0.28620000
    10  H          0.23960000       0.91800000       0.21380000
    11  H          0.73960000       0.58200000       0.71380000
    12  H          0.76040000       0.08200000       0.78620000
    13  C          0.34753000       0.56871190       0.23453800
    14  C          0.15247000       0.06871190       0.26546200
    15  C          0.65247000       0.43128810       0.76546200
    16  C          0.84753000       0.93128810       0.73453800
    17  C          0.50773000       0.64632000       0.22093800
    18  C         -0.00773000       0.14632000       0.27906200
    19  C          0.49227000       0.35368000       0.77906200
    20  C          0.00773000       0.85368000       0.72093800
    21  H          0.49460000       0.71180000       0.19210000
    22  H          0.00540000       0.21180000       0.30790000
    23  H          0.50540000       0.28820000       0.80790000
    24  H         -0.00540000       0.78820000       0.69210000
    25  C          0.68623000       0.62642000       0.25010900
    26  C          0.81377000       0.12642000       0.24989100
    27  C          0.31377000       0.37358000       0.74989100
    28  C          0.18623000       0.87358000       0.75010900
    29  H          0.79490000       0.67790000       0.24050000
    30  H          0.70510000       0.17790000       0.25950000
    31  H          0.20510000       0.32210000       0.75950000
    32  H          0.29490000       0.82210000       0.74050000
    33  C          0.70753000       0.53152000       0.29340800
    34  C          0.79247000       0.03152000       0.20659200
    35  C          0.29247000       0.46848000       0.70659200
    36  C          0.20753000       0.96848000       0.79340800
    37  H          0.82960000       0.51900000       0.31300000
    38  H          0.67040000       0.01900000       0.18700000
    39  H          0.17040000       0.48100000       0.68700000
    40  H          0.32960000       0.98100000       0.81300000
    41  C          0.56193000       0.35585180       0.35587700
    42  C          0.93807000       0.85585180       0.14412300
    43  C          0.43807000       0.64414820       0.64412300
    44  C          0.06193000       0.14414820       0.85587700
    45  O          0.72842000       0.35349160       0.38395600
    46  O          0.77158000       0.85349160       0.11604400
    47  O          0.27158000       0.64650840       0.61604400
    48  O          0.22842000       0.14650840       0.88395600
    49  H          0.72790000       0.29220000       0.40800000
    50  H          0.77210000       0.79220000       0.09200000
    51  H          0.27210000       0.70780000       0.59200000
    52  H          0.22790000       0.20780000       0.90800000
    53  O          0.42012000       0.28292140       0.36667600
    54  O          0.07988000       0.78292140       0.13332400
    55  O          0.57988000       0.71707860       0.63332400
    56  O          0.92012000       0.21707860       0.86667600
    57  O          0.16562000       0.58180180       0.20791800
    58  O          0.33438000       0.08180180       0.29208200
    59  O          0.83438000       0.41819820       0.79208200
    60  O          0.66562000       0.91819820       0.70791800
    61  H          0.16490000       0.64800000       0.18590000
    62  H          0.33510000       0.14800000       0.31410000
    63  H          0.83510000       0.35200000       0.81410000
    64  H          0.66490000       0.85200000       0.68590000
    65  C          0.77682000       0.22010180       0.51522800
    66  C          0.72318000       0.72010180       0.98477200
    67  C          0.22318000       0.77989820       0.48477200
    68  C          0.27682000       0.27989820       0.01522800
    69  C          0.79323000       0.36602000       0.52524100
    70  C          0.70677000       0.86602000       0.97475900
    71  C          0.20677000       0.63398000       0.47475900
    72  C          0.29323000       0.13398000       0.02524100
    73  H          0.78680000       0.42920000       0.49550000
    74  H          0.71320000       0.92920000       0.00450000
    75  H          0.21320000       0.57080000       0.50450000
    76  H          0.28680000       0.07080000      -0.00450000
    77  C          0.81843000       0.41343000       0.57821110
    78  C          0.68157000       0.91343000       0.92178890
    79  C          0.18157000       0.58657000       0.42178890
    80  C          0.31843000       0.08657000       0.07821110
    81  H          0.83030000       0.50980000       0.58480000
    82  H          0.66970000       0.00980000       0.91520000
    83  H          0.16970000       0.49020000       0.41520000
    84  H          0.33030000      -0.00980000       0.08480000
    85  C          0.82713000       0.31993000       0.62346100
    86  C          0.67287000       0.81993000       0.87653900
    87  C          0.17287000       0.68007000       0.37653900
    88  C          0.32713000       0.18007000       0.12346100
    89  H          0.84490000       0.35510000       0.65970000
    90  H          0.65510000       0.85510000       0.84030000
    91  H          0.15510000       0.64490000       0.34030000
    92  H          0.34490000       0.14490000       0.15970000
    93  C          0.80993000       0.18073000       0.61537800
    94  C          0.69007000       0.68073000       0.88462200
    95  C          0.19007000       0.81927000       0.38462200
    96  C          0.30993000       0.31927000       0.11537800
    97  H          0.81480000       0.12030000       0.64600000
    98  H          0.68520000       0.62030000       0.85400000
    99  H          0.18520000       0.87970000       0.35400000
   100  H          0.31480000       0.37970000       0.14600000
   101  C          0.78463000       0.12472000       0.56076700
   102  C          0.71537000       0.62472000       0.93923300
   103  C          0.21537000       0.87528000       0.43923300
   104  C          0.28463000       0.37528000       0.06076700
   105  C          0.76513000       0.98228000       0.54936800
   106  C          0.73487000       0.48228000       0.95063200
   107  C          0.23487000       0.01772000       0.45063200
   108  C          0.26513000       0.51772000       0.04936800
   109  H          0.76900000       0.91830000       0.57880000
   110  H          0.73100000       0.41830000       0.92120000
   111  H          0.23100000       0.08170000       0.42120000
   112  H          0.26900000       0.58170000       0.07880000
   113  C          0.74012000       0.93341820       0.49537800
   114  C          0.75988000       0.43341820       0.00462200
   115  C          0.25988000       0.06658180       0.50462200
   116  C          0.24012000       0.56658180      -0.00462200
   117  C          0.71913000       0.78838000       0.48153100
   118  C          0.78087000       0.28838000       0.01846900
   119  C          0.28087000       0.21162000       0.51846900
   120  C          0.21913000       0.71162000       0.98153100
   121  H          0.72190000       0.72110000       0.50970000
   122  H          0.77810000       0.22110000       0.99030000
   123  H          0.27810000       0.27890000       0.49030000
   124  H          0.22190000       0.77890000       0.00970000
   125  C          0.69543000       0.74818000       0.42808110
   126  C          0.80457000       0.24818000       0.07191890
   127  C          0.30457000       0.25182000       0.57191890
   128  C          0.19543000       0.75182000       0.92808110
   129  H          0.68320000       0.65290000       0.41930000
   130  H          0.81680000       0.15290000       0.08070000
   131  H          0.31680000       0.34710000       0.58070000
   132  H          0.18320000       0.84710000       0.91930000
   133  C          0.68873000       0.84818000       0.38520100
   134  C          0.81127000       0.34818000       0.11479900
   135  C          0.31127000       0.15182000       0.61479900
   136  C          0.18873000       0.65182000       0.88520100
   137  H          0.67090000       0.81830000       0.34830000
   138  H          0.82910000       0.31830000       0.15170000
   139  H          0.32910000       0.18170000       0.65170000
   140  H          0.17090000       0.68170000       0.84830000
   141  C          0.70753000      -0.01332000       0.39622800
   142  C          0.79247000       0.48668000       0.10377200
   143  C          0.29247000       0.01332000       0.60377200
   144  C          0.20753000       0.51332000       0.89622800
   145  H          0.70290000       0.05160000       0.36710000
   146  H          0.79710000       0.55160000       0.13290000
   147  H          0.29710000       0.94840000       0.63290000
   148  H          0.20290000       0.44840000       0.86710000
   149  C          0.73402000       0.03329180       0.45168700
   150  C          0.76598000       0.53329180       0.04831300
   151  C          0.26598000       0.96670820       0.54831300
   152  C          0.23402000       0.46670820       0.95168700
   153  N          0.75222000       0.17216150       0.46269600
   154  N          0.74778000       0.67216150       0.03730400
   155  N          0.24778000       0.82783850       0.53730400
   156  N          0.25222000       0.32783850       0.96269600
