data_DIPRAY
_symmetry_space_group_name_H-M    'P1'
_symmetry_Int_Tables_number       1
loop_
_symmetry_equiv_pos_site_id
_symmetry_equiv_pos_as_xyz
1 x,y,z
_cell_length_a                   10.4554
_cell_length_b                   12.6285
_cell_length_c                   15.3036
_cell_angle_alpha                74.69419
_cell_angle_beta                 82.163
_cell_angle_gamma                77.992
loop_
_atom_site_label
_atom_site_type_symbol
_atom_site_fract_x
_atom_site_fract_y
_atom_site_fract_z
     1  S          0.20073700       0.04188600       0.80265500
     2  S          0.79926300       0.95811400       0.19734500
     3  S          0.33004700       0.00920600       0.62432500
     4  S          0.66995300       0.99079400       0.37567500
     5  S          0.14130700       0.12903600       0.46874500
     6  S          0.85869300       0.87096400       0.53125500
     7  S          0.18444700       0.35567600       0.36837500
     8  S          0.81555300       0.64432400       0.63162500
     9  S          0.36257700       0.48615600       0.43054500
    10  S          0.63742300       0.51384400       0.56945500
    11  S          0.13868700       0.61575600       0.51849500
    12  S          0.86131300       0.38424400       0.48150500
    13  S          0.24659700       0.54065600       0.70499500
    14  S          0.75340300       0.45934400       0.29500500
    15  S          0.10473700       0.38329600       0.84497500
    16  S          0.89526300       0.61670400       0.15502500
    17  S          0.83415300       0.36588600       0.77470500
    18  S          0.16584700       0.63411400       0.22529500
    19  S          0.89641300       0.13342600       0.75579500
    20  S          0.10358700       0.86657400       0.24420500
    21  C          0.16053000       0.20342000       0.64501180
    22  C          0.83947000       0.79658000       0.35498820
    23  C          0.19093000       0.27842000       0.55466180
    24  C          0.80907000       0.72158000       0.44533820
    25  C          0.18503000       0.38972000       0.57178180
    26  C          0.81497000       0.61028000       0.42821820
    27  C          0.12413000       0.38402000       0.66558190
    28  C          0.87587000       0.61598000       0.33441810
    29  C          0.07123000       0.27832000       0.69549180
    30  C          0.92877000       0.72168000       0.30450820
    31  C          0.21903000       0.09842000       0.68302190
    32  C          0.78097000       0.90158000       0.31697810
    33  C          0.18173000       0.25672000       0.47364190
    34  C          0.81827000       0.74328000       0.52635810
    35  C          0.22543000       0.48262000       0.51267180
    36  C          0.77457000       0.51738000       0.48732820
    37  C          0.15173000       0.43352000       0.72795190
    38  C          0.84827000       0.56648000       0.27204810
    39  C          0.95197000       0.26042000       0.73872180
    40  C          0.04803000       0.73958000       0.26127820
    41  C          0.34883000       0.94458000       0.80563190
    42  C          0.65117000       0.05542000       0.19436810
    43  C          0.40553000       0.88498000       0.88602000
    44  C          0.59447000       0.11502000       0.11398000
    45  H          0.36450000       0.89540000       0.94320000
    46  H          0.63550000       0.10460000       0.05680000
    47  C          0.52283000       0.81027000       0.88082000
    48  C          0.47717000       0.18973000       0.11918000
    49  H          0.56220000       0.76940000       0.93500000
    50  H          0.43780000       0.23060000       0.06500000
    51  C          0.58313000       0.79487000       0.79732000
    52  C          0.41687000       0.20513000       0.20268000
    53  H          0.66320000       0.74340000       0.79520000
    54  H          0.33680000       0.25660000       0.20480000
    55  C          0.52773000       0.85398000       0.71612000
    56  C          0.47227000       0.14602000       0.28388000
    57  H          0.56910000       0.84330000       0.65910000
    58  H          0.43090000       0.15670000       0.34090000
    59  C          0.41013000       0.92888000       0.72136190
    60  C          0.58987000       0.07112000       0.27863810
    61  C          0.08223000       0.18012000       0.36021190
    62  C          0.91777000       0.81988000       0.63978810
    63  C          0.01903000       0.11962000       0.32152000
    64  C          0.98097000       0.88038000       0.67848000
    65  H          0.00350000       0.04750000       0.35390000
    66  H         -0.00350000       0.95250000       0.64610000
    67  C          0.97847000       0.16663000       0.23452000
    68  C          0.02153000       0.83337000       0.76548000
    69  H          0.93390000       0.12660000       0.20770000
    70  H          0.06610000       0.87340000       0.79230000
    71  C          0.00283000       0.27192000       0.18632000
    72  C         -0.00283000       0.72808000       0.81368000
    73  H          0.97610000       0.30200000       0.12640000
    74  H          0.02390000       0.69800000       0.87360000
    75  C          0.06553000       0.33332000       0.22480190
    76  C          0.93447000       0.66668000       0.77519810
    77  H          0.08170000       0.40520000       0.19220000
    78  H          0.91830000       0.59480000       0.80780000
    79  C          0.10413000       0.28632000       0.31285180
    80  C          0.89587000       0.71368000       0.68714820
    81  C          0.37143000       0.62612000       0.42167180
    82  C          0.62857000       0.37388000       0.57832820
    83  C          0.47643000       0.67632000       0.37509190
    84  C          0.52357000       0.32368000       0.62490810
    85  H          0.54650000       0.63590000       0.34390000
    86  H          0.45350000       0.36410000       0.65610000
    87  C          0.47643000       0.78632000       0.37512000
    88  C          0.52357000       0.21368000       0.62488000
    89  H          0.54750000       0.82110000       0.34370000
    90  H          0.45250000       0.17890000       0.65630000
    91  C          0.37463000       0.84612000       0.42022000
    92  C          0.62537000       0.15388000       0.57978000
    93  H          0.37700000       0.92100000       0.41990000
    94  H          0.62300000       0.07900000       0.58010000
    95  C          0.26853000       0.79722000       0.46622000
    96  C          0.73147000       0.20278000       0.53378000
    97  H          0.19860000       0.83800000       0.49720000
    98  H          0.80140000       0.16200000       0.50280000
    99  C          0.26733000       0.68752000       0.46571190
   100  C          0.73267000       0.31248000       0.53428810
   101  C          0.26273000       0.53302000       0.82002000
   102  C          0.73727000       0.46698000       0.17998000
   103  C          0.33653000       0.59832000       0.84642000
   104  C          0.66347000       0.40168000       0.15358000
   105  H          0.38380000       0.64760000       0.80230000
   106  H          0.61620000       0.35240000       0.19770000
   107  C          0.33853000       0.58893000       0.93902000
   108  C          0.66147000       0.41107000       0.06098000
   109  H          0.38850000       0.63190000       0.95830000
   110  H          0.61150000       0.36810000       0.04170000
   111  C          0.26843000       0.51743000       0.00352000
   112  C          0.73157000       0.48257000      -0.00352000
   113  H          0.27110000       0.51260000       0.06630000
   114  H          0.72890000       0.48740000       0.93370000
   115  C          0.19523000       0.45343000       0.97792000
   116  C          0.80477000       0.54657000       0.02208000
   117  H          0.14740000       0.40500000       0.02240000
   118  H          0.85260000       0.59500000       0.97760000
   119  C          0.19273000       0.46122000       0.88515190
   120  C          0.80727000       0.53878000       0.11484810
   121  C          0.70657000       0.28832000       0.80927190
   122  C          0.29343000       0.71168000       0.19072810
   123  C          0.58127000       0.33102000       0.84383190
   124  C          0.41873000       0.66898000       0.15616810
   125  H          0.56110000       0.40560000       0.85050000
   126  H          0.43890000       0.59440000       0.14950000
   127  C          0.48657000       0.26323000       0.86842000
   128  C          0.51343000       0.73677000       0.13158000
   129  H          0.40130000       0.29170000       0.89190000
   130  H          0.59870000       0.70830000       0.10810000
   131  C          0.51587000       0.15433000       0.85892000
   132  C          0.48413000       0.84567000       0.14108000
   133  H          0.45050000       0.10870000       0.87640000
   134  H          0.54950000       0.89130000       0.12360000
   135  C          0.63977000       0.11112000       0.82402000
   136  C          0.36023000       0.88888000       0.17598000
   137  H          0.65900000       0.03680000       0.81680000
   138  H          0.34100000       0.96320000       0.18320000
   139  C          0.73567000       0.17852000       0.79969190
   140  C          0.26433000       0.82148000       0.20030810
   141  S          0.91487200       0.16183700       0.98924600
   142  S          0.08512800       0.83816300       0.01075400
   143  S          0.20802800       0.11491800       0.02563600
   144  S          0.79197200       0.88508200       0.97436400
   145  C          0.06073000       0.13733000       0.00752000
   146  C          0.93927000       0.86267000      -0.00752000
