data_DIPVUX
_symmetry_space_group_name_H-M    'P1'
_symmetry_Int_Tables_number       1
loop_
_symmetry_equiv_pos_site_id
_symmetry_equiv_pos_as_xyz
1 x,y,z
_cell_length_a                   6.869501
_cell_length_b                   28.55845
_cell_length_c                   7.49192
_cell_angle_alpha                90.0
_cell_angle_beta                 91.7002
_cell_angle_gamma                90.0
loop_
_atom_site_label
_atom_site_type_symbol
_atom_site_fract_x
_atom_site_fract_y
_atom_site_fract_z
     1  Cl         0.33360400       0.31408200       0.49636500
     2  Cl         0.16639600       0.81408200       0.00363500
     3  Cl         0.66639600       0.68591800       0.50363500
     4  Cl         0.83360400       0.18591800      -0.00363500
     5  S          0.92706400       0.27304200       0.64674400
     6  S          0.57293600       0.77304200       0.85325600
     7  S          0.07293600       0.72695800       0.35325600
     8  S          0.42706400       0.22695800       0.14674400
     9  O          0.07989130       0.25670300       0.76615120
    10  O          0.42010870       0.75670300       0.73384880
    11  O          0.92010870       0.74329700       0.23384880
    12  O          0.57989130       0.24329700       0.26615120
    13  O          0.72869120       0.26903300       0.69995120
    14  O          0.77130880       0.76903300       0.80004880
    15  O          0.27130880       0.73096700       0.30004880
    16  O          0.22869120       0.23096700       0.19995120
    17  O          0.54314130       0.43133300       0.75462130
    18  O          0.95685870       0.93133300       0.74537870
    19  O          0.45685870       0.56866700       0.24537870
    20  O          0.04314130       0.06866700       0.25462130
    21  O          0.72561140       0.48972300       0.64890150
    22  O          0.77438860       0.98972300       0.85109850
    23  O          0.27438860       0.51027700       0.35109850
    24  O          0.22561140       0.01027700       0.14890150
    25  H          0.63268700       0.50631200       0.68269300
    26  H          0.86731300       0.00631200       0.81730700
    27  H          0.36731300       0.49368800       0.31730700
    28  H          0.13268700       0.99368800       0.18269300
    29  N          0.94237140       0.24471400       0.46425140
    30  N          0.55762860       0.74471400       0.03574860
    31  N          0.05762860       0.75528600       0.53574860
    32  N          0.44237140       0.25528600       0.96425140
    33  H          0.83621600       0.24667000       0.39520000
    34  H          0.66378400       0.74667000       0.10480000
    35  H          0.16378400       0.75333000       0.60480000
    36  H          0.33621600       0.25333000       0.89520000
    37  H          0.05501400       0.24426000       0.41120000
    38  H          0.44498600       0.74426000       0.08880000
    39  H          0.94498600       0.75574000       0.58880000
    40  H          0.55501400       0.25574000       0.91120000
    41  C          0.96725150       0.33369400       0.60884150
    42  C          0.53274850       0.83369400       0.89115850
    43  C          0.03274850       0.66630600       0.39115850
    44  C          0.46725150       0.16630600       0.10884150
    45  C          0.81911150       0.36485400       0.64991150
    46  C          0.68088850       0.86485400       0.85008850
    47  C          0.18088850       0.63514600       0.35008850
    48  C          0.31911150       0.13514600       0.14991150
    49  H          0.69988200       0.35342700       0.69401400
    50  H          0.80011800       0.85342700       0.80598600
    51  H          0.30011800       0.64657300       0.30598600
    52  H          0.19988200       0.14657300       0.19401400
    53  C          0.84598160       0.41282400       0.62623160
    54  C          0.65401840       0.91282400       0.87376840
    55  C          0.15401840       0.58717600       0.37376840
    56  C          0.34598160       0.08717600       0.12623160
    57  C          0.01929170       0.42944400       0.55693170
    58  C          0.48070830       0.92944400       0.94306830
    59  C         -0.01929170       0.57055600       0.44306830
    60  C          0.51929170       0.07055600       0.05693170
    61  H          0.03596400       0.46208000       0.53817400
    62  H          0.46403600       0.96208000       0.96182600
    63  H          0.96403600       0.53792000       0.46182600
    64  H          0.53596400       0.03792000       0.03817400
    65  C          0.16750160       0.39859400       0.51521170
    66  C          0.33249840       0.89859400      -0.01521170
    67  C          0.83249840       0.60140600       0.48478830
    68  C          0.66750160       0.10140600       0.01521170
    69  H          0.28489800       0.40999300       0.46727700
    70  H          0.21510200       0.90999300       0.03272300
    71  H          0.71510200       0.59000700       0.53272300
    72  H          0.78489800       0.09000700       0.96727700
    73  C          0.14276150       0.35100400       0.54408160
    74  C          0.35723850       0.85100400       0.95591840
    75  C          0.85723850       0.64899600       0.45591840
    76  C          0.64276150       0.14899600       0.04408160
    77  C          0.68868170       0.44533400       0.68213160
    78  C          0.81131830       0.94533400       0.81786840
    79  C          0.31131830       0.55466600       0.31786840
    80  C          0.18868170       0.05466600       0.18213160
    81  O          0.52581140       0.44797300       0.25012140
    82  O          0.97418860       0.94797300       0.24987860
    83  O          0.47418860       0.55202700       0.74987860
    84  O          0.02581140       0.05202700       0.75012140
    85  N         -0.00844850       0.43137300       0.06547150
    86  N          0.50844850       0.93137300       0.43452850
    87  N          0.00844850       0.56862700       0.93452850
    88  N          0.49155150       0.06862700       0.56547150
    89  N          0.73208160       0.50016400       0.13060170
    90  N          0.76791840       0.00016400       0.36939830
    91  N          0.26791840       0.49983600       0.86939830
    92  N          0.23208160      -0.00016400       0.63060170
    93  H          0.65586300       0.52393600       0.15501600
    94  H          0.84413700       0.02393600       0.34498400
    95  H          0.34413700       0.47606400       0.84498400
    96  H          0.15586300       0.97606400       0.65501600
    97  H          0.84263400       0.50500800       0.07713700
    98  H          0.65736600       0.00500800       0.42286300
    99  H          0.15736600       0.49499200       0.92286300
   100  H          0.34263400       0.99499200       0.57713700
   101  C          0.68044170       0.45710400       0.17428170
   102  C          0.81955830       0.95710400       0.32571830
   103  C          0.31955830       0.54289600       0.82571830
   104  C          0.18044170       0.04289600       0.67428170
   105  C          0.81906170       0.41841400       0.12983160
   106  C          0.68093830       0.91841400       0.37016840
   107  C          0.18093830       0.58158600       0.87016840
   108  C          0.31906170       0.08158600       0.62983160
   109  C          0.76564190       0.37200400       0.15799170
   110  C          0.73435810       0.87200400       0.34200830
   111  C          0.23435810       0.62799600       0.84200830
   112  C          0.26564190       0.12799600       0.65799170
   113  H          0.64115900       0.36435800       0.20165900
   114  H          0.85884100       0.86435800       0.29834100
   115  H          0.35884100       0.63564200       0.79834100
   116  H          0.14115900       0.13564200       0.70165900
   117  C          0.89992000       0.33718400       0.12029180
   118  C          0.60008000       0.83718400       0.37970820
   119  C          0.10008000       0.66281600       0.87970820
   120  C          0.39992000       0.16281600       0.62029180
   121  H          0.86781100       0.30509600       0.13545400
   122  H          0.63218900       0.80509600       0.36454600
   123  H          0.13218900       0.69490400       0.86454600
   124  H          0.36781100       0.19490400       0.63545400
   125  C          0.08102000       0.34998400       0.06034180
   126  C          0.41898000       0.84998400       0.43965820
   127  C          0.91898000       0.65001600       0.93965820
   128  C          0.58102000       0.15001600       0.56034180
   129  H          0.17693100       0.32694900       0.03773200
   130  H          0.32306900       0.82694900       0.46226800
   131  H          0.82306900       0.67305100       0.96226800
   132  H          0.67693100       0.17305100       0.53773200
   133  C          0.11956180       0.39719400       0.03390180
   134  C          0.38043820       0.89719400       0.46609820
   135  C          0.88043820       0.60280600       0.96609820
   136  C          0.61956180       0.10280600       0.53390180
   137  H          0.24347400       0.40569700      -0.00888900
   138  H          0.25652600       0.90569700       0.50888900
   139  H          0.75652600       0.59430300       0.00888900
   140  H          0.74347400       0.09430300       0.49111100
