data_DIPWIM01
_symmetry_space_group_name_H-M    'P1'
_symmetry_Int_Tables_number       1
loop_
_symmetry_equiv_pos_site_id
_symmetry_equiv_pos_as_xyz
1 x,y,z
_cell_length_a                   7.51354
_cell_length_b                   13.84231
_cell_length_c                   15.59361
_cell_angle_alpha                67.1327
_cell_angle_beta                 83.8565
_cell_angle_gamma                81.4295
loop_
_atom_site_label
_atom_site_type_symbol
_atom_site_fract_x
_atom_site_fract_y
_atom_site_fract_z
     1  Cl         0.89556130       0.72179800       0.37443800
     2  Cl         0.10443870       0.27820200       0.62556200
     3  S          0.46665120       0.76289700       0.43456600
     4  S          0.53334880       0.23710300       0.56543400
     5  O          0.27653000       0.75472000       0.44873190
     6  O          0.72347000       0.24528000       0.55126810
     7  O          0.56574000       0.75082000       0.51195180
     8  O          0.43426000       0.24918000       0.48804820
     9  O          0.21553000       0.46312000       0.36772000
    10  O          0.78447000       0.53688000       0.63228000
    11  O          0.44083000       0.39029190       0.29723180
    12  O          0.55917000       0.60970810       0.70276820
    13  H          0.36693100       0.34781500       0.30322300
    14  H          0.63306900       0.65218500       0.69677700
    15  N          0.49524000       0.87552000       0.35542000
    16  N          0.50476000       0.12448000       0.64458000
    17  H          0.46140000       0.88330000       0.30001300
    18  H          0.53860000       0.11670000       0.69998700
    19  H          0.60230000       0.89730000       0.35420000
    20  H          0.39770000       0.10270000       0.64580000
    21  C          0.55765000       0.66383000       0.39082000
    22  C          0.44235000       0.33617000       0.60918000
    23  C          0.74045000       0.64583000       0.36643000
    24  C          0.25955000       0.35417000       0.63357000
    25  C          0.80385000       0.56693000       0.33363000
    26  C          0.19615000       0.43307000       0.66637000
    27  H          0.92862300       0.55478400       0.31814200
    28  H          0.07137700       0.44521600       0.68185800
    29  C          0.68445000       0.50583000       0.32343000
    30  C          0.31555000       0.49417000       0.67657000
    31  H          0.72771600       0.45232100       0.29977700
    32  H          0.27228400       0.54767900       0.70022300
    33  C          0.50265000       0.52123000       0.34702000
    34  C          0.49735000       0.47877000       0.65298000
    35  C          0.43915000       0.60053000       0.38102000
    36  C          0.56085000       0.39947000       0.61898000
    37  H          0.31443600       0.61131100       0.39749500
    38  H          0.68556400       0.38868900       0.60250500
    39  C          0.37155000       0.45563000       0.33863000
    40  C          0.62845000       0.54437000       0.66137000
    41  Cl         0.59514120       0.82425700       0.13512700
    42  Cl         0.40485880       0.17574300       0.86487300
    43  S          0.15940120       0.89849700       0.14059600
    44  S          0.84059880       0.10150300       0.85940400
    45  O          0.97007000       0.90660190       0.12948190
    46  O          0.02993000       0.09339810       0.87051810
    47  O          0.21803000       0.90002000       0.22451180
    48  O          0.78197000       0.09998000       0.77548820
    49  O          0.92086000       0.56302000       0.12172000
    50  O          0.07914000       0.43698000       0.87828000
    51  O          0.16373000       0.45652000       0.10372000
    52  O          0.83627000       0.54348000       0.89628000
    53  H          0.08599000       0.41964500       0.10195100
    54  H          0.91401000       0.58035500       0.89804900
    55  N          0.23714000      -0.00368000       0.05702000
    56  N          0.76286000       0.00368000       0.94298000
    57  H          0.34730000       0.01430000       0.05820000
    58  H          0.65270000       0.98570000       0.94180000
    59  H          0.21250000      -0.00070000       0.00121400
    60  H          0.78750000       0.00070000      -0.00121400
    61  C          0.25575000       0.77833000       0.12902000
    62  C          0.74425000       0.22167000       0.87098000
    63  C          0.44255000       0.75003000       0.12222000
    64  C          0.55745000       0.24997000       0.87778000
    65  C          0.51165000       0.65983000       0.10533000
    66  C          0.48835000       0.34017000       0.89467000
    67  H          0.63804400       0.64281300       0.09792900
    68  H          0.36195600       0.35718700       0.90207100
    69  C          0.39375000       0.59493000       0.09943000
    70  C          0.60625000       0.40507000       0.90057000
    71  H          0.43992500       0.53397600       0.08650600
    72  H          0.56007500       0.46602400       0.91349400
    73  C          0.21005000       0.61763000       0.11213000
    74  C          0.78995000       0.38237000       0.88787000
    75  C          0.14085000       0.71053000       0.12493000
    76  C          0.85915000       0.28947000       0.87507000
    77  H          0.01404100       0.72760300       0.13088400
    78  H         -0.01404100       0.27239700       0.86911600
    79  C          0.08225000       0.54423000       0.11243000
    80  C          0.91775000       0.45577000       0.88757000
    81  O          0.23423000       0.24052000       0.31421180
    82  O          0.76577000       0.75948000       0.68578820
    83  N          0.78064000       0.98612000       0.37372000
    84  N          0.21936000       0.01388000       0.62628000
    85  N          0.01974000       0.28892000       0.40822000
    86  N          0.98026000       0.71108000       0.59178000
    87  H          0.07692800       0.34086500       0.40598700
    88  H          0.92307200       0.65913500       0.59401300
    89  H          0.91674800       0.27727000       0.44106300
    90  H          0.08325200       0.72273000       0.55893700
    91  C          0.96015000       0.97123000       0.37283000
    92  C          0.03985000       0.02877000       0.62717000
    93  H          0.01944000       0.90541900       0.37336700
    94  H          0.98056000       0.09458100       0.62663300
    95  C          0.06535000       0.04653000       0.37103000
    96  C          0.93465000       0.95347000       0.62897000
    97  H          0.19285500       0.03193700       0.37154000
    98  H          0.80714500       0.96806300       0.62846000
    99  C          0.97945000       0.14343000       0.36842000
   100  C          0.02055000       0.85657000       0.63158000
   101  C          0.79295000       0.15903000       0.37243000
   102  C          0.20705000       0.84097000       0.62757000
   103  H          0.72974000       0.22331800       0.37358500
   104  H          0.27026000       0.77668200       0.62641500
   105  C          0.70095000       0.07873000       0.37473000
   106  C          0.29905000       0.92127000       0.62527000
   107  H          0.57292500       0.09000600       0.37704600
   108  H          0.42707500       0.90999400       0.62295400
   109  C          0.08785000       0.22853000       0.36253000
   110  C          0.91215000       0.77147000       0.63747000
   111  O          0.55924000       0.06592000       0.09552000
   112  O          0.44076000       0.93408000       0.90448000
   113  N          0.91974000       0.32952000       0.11522000
   114  N          0.08026000       0.67048000       0.88478000
   115  N          0.37514000       0.12652000       0.19202000
   116  N          0.62486000       0.87348000       0.80798000
   117  H          0.29399900       0.08448700       0.19726100
   118  H          0.70600100       0.91551300       0.80273900
   119  H          0.35681200       0.16979900       0.22192500
   120  H          0.64318800       0.83020100       0.77807500
   121  C          0.96365000       0.23803000       0.10323000
   122  C          0.03635000       0.76197000       0.89677000
   123  H          0.08608800       0.21858700       0.08819300
   124  H          0.91391200       0.78141300       0.91180700
   125  C          0.83925000       0.17093000       0.11153000
   126  C          0.16075000       0.82907000       0.88847000
   127  H          0.87570500       0.10639700       0.10289700
   128  H          0.12429500       0.89360300       0.89710300
   129  C          0.66005000       0.19873000       0.13262000
   130  C          0.33995000       0.80127000       0.86738000
   131  C          0.61145000       0.29393000       0.14453000
   132  C          0.38855000       0.70607000       0.85547000
   133  H          0.48929500       0.31575900       0.15791800
   134  H          0.51070500       0.68424100       0.84208200
   135  C          0.74585000       0.35583000       0.13633000
   136  C          0.25415000       0.64417000       0.86367000
   137  H          0.71361500       0.41994600       0.14599100
   138  H          0.28638500       0.58005400       0.85400900
   139  C          0.52695000       0.12453000       0.13853000
   140  C          0.47305000       0.87547000       0.86147000
