data_DIPWAE
_symmetry_space_group_name_H-M    'P1'
_symmetry_Int_Tables_number       1
loop_
_symmetry_equiv_pos_site_id
_symmetry_equiv_pos_as_xyz
1 x,y,z
_cell_length_a                   7.01423
_cell_length_b                   7.58803
_cell_length_c                   14.89896
_cell_angle_alpha                89.8093
_cell_angle_beta                 83.3914
_cell_angle_gamma                73.2754
loop_
_atom_site_label
_atom_site_type_symbol
_atom_site_fract_x
_atom_site_fract_y
_atom_site_fract_z
     1  Cl         0.70862500       0.84610400       0.21357200
     2  Cl         0.29137500       0.15389600       0.78642800
     3  S          0.64887500       0.45023400       0.15409200
     4  S          0.35112500       0.54976600       0.84590800
     5  O          0.67677160       0.25523130       0.14972600
     6  O          0.32322840       0.74476870       0.85027400
     7  O          0.45445150       0.57291130       0.14346700
     8  O          0.54554850       0.42708870       0.85653300
     9  O          0.72682000       0.10294150       0.46393700
    10  O          0.27318000       0.89705850       0.53606300
    11  O          0.78874180       0.29427140       0.56323700
    12  O          0.21125820       0.70572860       0.43676300
    13  H          0.79848900       0.20429700       0.59718800
    14  H          0.20151100       0.79570300       0.40281200
    15  N          0.80772000       0.49311170       0.07990800
    16  N          0.19228000       0.50688830       0.92009200
    17  H          0.80330000       0.60461400       0.06151300
    18  H          0.19670000       0.39538600       0.93848700
    19  H          0.92311900       0.40571700       0.06871200
    20  H          0.07688100       0.59428300       0.93128800
    21  C          0.69973190       0.49963170       0.26403800
    22  C          0.30026810       0.50036830       0.73596200
    23  C          0.72032000       0.67044170       0.28912900
    24  C          0.27968000       0.32955830       0.71087100
    25  C          0.75232000       0.70447190       0.37682100
    26  C          0.24768000       0.29552810       0.62317900
    27  H          0.76729000       0.82006300       0.39350300
    28  H          0.23271000       0.17993700       0.60649700
    29  C          0.76242000       0.56805190       0.43986900
    30  C          0.23758000       0.43194810       0.56013100
    31  H          0.78438500       0.59084200       0.49991400
    32  H          0.21561500       0.40915800       0.50008600
    33  C          0.74062000       0.39839170       0.41620800
    34  C          0.25938000       0.60160830       0.58379200
    35  C          0.70999190       0.36438170       0.32771800
    36  C          0.29000810       0.63561830       0.67228200
    37  H          0.69617400       0.24833100       0.31106200
    38  H          0.30382600       0.75166900       0.68893800
    39  C          0.75112000       0.24966190       0.48295800
    40  C          0.24888000       0.75033810       0.51704200
    41  O          0.15122160       0.20322140       0.02722600
    42  O          0.84877840       0.79677860       0.97277400
    43  N          0.20272190       0.97386840       0.32342700
    44  N          0.79727810       0.02613160       0.67657300
    45  N          0.27642000       0.89774840       0.03991800
    46  N          0.72358000       0.10225160       0.96008200
    47  H          0.28289400       0.87805600       0.98131100
    48  H          0.71710600       0.12194400       0.01868900
    49  H          0.31550200       0.80449400       0.07537800
    50  H          0.68449800       0.19550600       0.92462200
    51  C          0.22882000       0.13052000       0.35448900
    52  C          0.77118000       0.86948000       0.64551100
    53  H          0.24228500       0.14160800       0.41676100
    54  H          0.75771500       0.85839200       0.58323900
    55  C          0.23662000       0.27572190       0.29975900
    56  C          0.76338000       0.72427810       0.70024100
    57  H          0.25022600       0.38629400       0.32425500
    58  H          0.74977400       0.61370600       0.67574500
    59  C          0.22432000       0.25717180       0.20826900
    60  C          0.77568000       0.74282820       0.79173100
    61  H          0.22847600       0.35542300       0.16911300
    62  H          0.77152400       0.64457700       0.83088700
    63  C          0.20570190       0.09280180       0.17434800
    64  C          0.79429810       0.90719820       0.82565200
    65  C          0.19092000       0.95620820       0.23514800
    66  C          0.80908000       0.04379180       0.76485200
    67  H          0.17154500       0.84609700       0.21300000
    68  H          0.82845500       0.15390300       0.78700000
    69  C          0.20802000       0.06734180       0.07463800
    70  C          0.79198000       0.93265820       0.92536200
