data_DIQCAJ
_symmetry_space_group_name_H-M    'P1'
_symmetry_Int_Tables_number       1
loop_
_symmetry_equiv_pos_site_id
_symmetry_equiv_pos_as_xyz
1 x,y,z
_cell_length_a                   4.39939
_cell_length_b                   10.4772
_cell_length_c                   12.1843
_cell_angle_alpha                68.8113
_cell_angle_beta                 84.9033
_cell_angle_gamma                89.1223
loop_
_atom_site_label
_atom_site_type_symbol
_atom_site_fract_x
_atom_site_fract_y
_atom_site_fract_z
     1  N          0.01783000       0.23566140       0.08369120
     2  N         -0.01783000       0.76433860       0.91630880
     3  H          0.89100000       0.29620000       0.09540000
     4  H          0.10900000       0.70380000       0.90460000
     5  N          0.19133000       0.15179150       0.16377130
     6  N          0.80867000       0.84820850       0.83622870
     7  N          0.34413000       0.07940150       0.11106120
     8  N          0.65587000       0.92059850       0.88893880
     9  N          0.27473000       0.11388150      -0.00146880
    10  N          0.72527000       0.88611850       0.00146880
    11  C          0.07024000       0.21158170       0.98263140
    12  C          0.92976000       0.78841830       0.01736860
    13  C          0.93964000       0.27845170       0.86990140
    14  C          0.06036000       0.72154830       0.13009860
    15  N          0.74893000       0.37739150       0.84542120
    16  N          0.25107000       0.62260850       0.15457880
    17  O          0.66203000       0.41573130       0.93934100
    18  O          0.33797000       0.58426870       0.06065900
    19  H          0.55050000       0.48460000       0.91740000
    20  H          0.44950000       0.51540000       0.08260000
    21  C          0.03234000       0.23421170       0.77037140
    22  C          0.96766000       0.76578830       0.22962860
    23  N          0.23713000       0.13864150       0.76867120
    24  N          0.76287000       0.86135850       0.23132880
    25  H          0.33990000       0.09000000       0.82820000
    26  H          0.66010000       0.91000000       0.17180000
    27  N          0.25954000       0.12933160       0.66123130
    28  N          0.74046000       0.87066840       0.33876870
    29  N          0.07154000       0.21750160       0.60006130
    30  N          0.92846000       0.78249840       0.39993870
    31  N          0.92434000       0.28481160       0.66523130
    32  N          0.07566000       0.71518840       0.33476870
    33  S          0.49154900       0.33076400       0.31085400
    34  S          0.50845100       0.66923600       0.68914600
    35  O          0.65993000       0.38498130       0.18670100
    36  O          0.34007000       0.61501870       0.81329900
    37  C          0.65844000       0.17015180       0.38417150
    38  C          0.34156000       0.82984820       0.61582850
    39  H          0.60630000       0.10520000       0.34740000
    40  H          0.39370000       0.89480000       0.65260000
    41  H          0.58010000       0.13510000       0.46770000
    42  H          0.41990000       0.86490000       0.53230000
    43  H          0.88070000       0.18170000       0.37790000
    44  H          0.11930000       0.81830000       0.62210000
    45  C          0.64144000       0.42871190       0.38718150
    46  C          0.35856000       0.57128810       0.61281850
    47  H          0.55720000       0.52090000       0.35920000
    48  H          0.44280000       0.47910000       0.64080000
    49  H          0.86430000       0.43480000       0.37220000
    50  H          0.13570000       0.56520000       0.62780000
    51  H          0.58520000       0.38430000       0.47220000
    52  H          0.41480000       0.61570000       0.52780000
