data_DIQGUJ
_symmetry_space_group_name_H-M    'P1'
_symmetry_Int_Tables_number       1
loop_
_symmetry_equiv_pos_site_id
_symmetry_equiv_pos_as_xyz
1 x,y,z
_cell_length_a                   6.995114
_cell_length_b                   9.714219
_cell_length_c                   16.2553
_cell_angle_alpha                78.603
_cell_angle_beta                 85.273
_cell_angle_gamma                82.743
loop_
_atom_site_label
_atom_site_type_symbol
_atom_site_fract_x
_atom_site_fract_y
_atom_site_fract_z
     1  C          0.86156000       0.01704000       0.35063000
     2  C          0.13844000       0.98296000       0.64937000
     3  C          0.71456000       0.97706000       0.40873000
     4  C          0.28544000       0.02294000       0.59127000
     5  H          0.58580000       0.02020000       0.40160000
     6  H          0.41420000       0.97980000       0.59840000
     7  C          0.75946000       0.87186000       0.47823000
     8  C          0.24054000       0.12814000       0.52177000
     9  H          0.66100000       0.84280000       0.51950000
    10  H          0.33900000       0.15720000       0.48050000
    11  C          0.94906000       0.80936000       0.48703000
    12  C          0.05094000       0.19064000       0.51297000
    13  H          0.97990000       0.73730000       0.53420000
    14  H          0.02010000       0.26270000       0.46580000
    15  C          0.09096000       0.85196000       0.42753000
    16  C          0.90904000       0.14804000       0.57247000
    17  H          0.21930000       0.80800000       0.43450000
    18  H          0.78070000       0.19200000       0.56550000
    19  C          0.05396000       0.95746000       0.35723000
    20  C          0.94604000       0.04254000       0.64277000
    21  C          0.20346000       0.00584000       0.29343000
    22  C          0.79654000      -0.00584000       0.70657000
    23  C          0.34216000       0.91045000       0.25993000
    24  C          0.65784000       0.08955000       0.74007000
    25  H          0.34020000       0.81170000       0.27930000
    26  H          0.65980000       0.18830000       0.72070000
    27  C          0.48026000       0.95805000       0.19963000
    28  C          0.51974000       0.04195000       0.80037000
    29  H          0.57180000       0.89170000       0.17770000
    30  H          0.42820000       0.10830000       0.82230000
    31  C          0.48836000       0.10115000       0.17023000
    32  C          0.51164000       0.89885000       0.82977000
    33  H          0.58520000       0.13220000       0.12870000
    34  H          0.41480000       0.86780000       0.87130000
    35  C          0.35596000       0.19824000       0.20133000
    36  C          0.64404000       0.80176000       0.79867000
    37  H          0.35940000       0.29670000       0.18170000
    38  H          0.64060000       0.70330000       0.81830000
    39  C          0.21736000       0.14854000       0.26203000
    40  C          0.78264000       0.85146000       0.73797000
    41  C          0.70056000       0.44464000       0.00273000
    42  C          0.29944000       0.55536000      -0.00273000
    43  H          0.80240000       0.36750000       0.02240000
    44  H          0.19760000       0.63250000       0.97760000
    45  H          0.76320000       0.52390000       0.96770000
    46  H          0.23680000       0.47610000       0.03230000
    47  C          0.56425000       0.39264000       0.95107000
    48  C          0.43575000       0.60736000       0.04893000
    49  H          0.63570000       0.36320000       0.90110000
    50  H          0.36430000       0.63680000       0.09890000
    51  H          0.50700000       0.30990000       0.98510000
    52  H          0.49300000       0.69010000       0.01490000
    53  N          0.75395000       0.34703000       0.34432000
    54  N          0.24605000       0.65297000       0.65568000
    55  N          0.57034000       0.54913000       0.22762000
    56  N          0.42966000       0.45087000       0.77238000
    57  N          0.84794000       0.35153000       0.17892000
    58  N          0.15206000       0.64847000       0.82108000
    59  N          0.58994000       0.49213000       0.07562000
    60  N          0.41006000       0.50787000       0.92438000
    61  O          0.81444000       0.11952000       0.27850170
    62  O          0.18556000       0.88048000       0.72149830
    63  O          0.08674000       0.24973000       0.29704180
    64  O          0.91326000       0.75027000       0.70295820
    65  P          0.86825150       0.27522100       0.27278700
    66  P          0.13174850       0.72477900       0.72721300
    67  P          0.60985150       0.48578100       0.32252700
    68  P          0.39014850       0.51421900       0.67747300
    69  P          0.71243150       0.49632100       0.15626700
    70  P          0.28756850       0.50367900       0.84373300
    71  Cl         0.35495160       0.45896120       0.38448800
    72  Cl         0.64504840       0.54103880       0.61551200
    73  Cl         0.69666170       0.63447110       0.37516700
    74  Cl         0.30333830       0.36552890       0.62483300
    75  Cl         0.88892150       0.65288110       0.11505700
    76  Cl         0.11107850       0.34711890       0.88494300
    77  C          0.00247000       0.04515000       0.06413000
    78  C         -0.00247000       0.95485000       0.93587000
    79  H          0.94830000       0.97330000       0.10890000
    80  H          0.05170000       0.02670000       0.89110000
    81  H          0.05200000       0.11390000       0.09210000
    82  H          0.94800000       0.88610000       0.90790000
    83  C          0.16328000       0.97555000       0.02234000
    84  C          0.83672000       0.02445000       0.97766000
    85  H          0.22690000       0.05050000       0.98340000
    86  H          0.77310000       0.94950000       0.01660000
    87  H          0.25570000       0.93250000       0.06560000
    88  H          0.74430000       0.06750000       0.93440000
    89  N          0.85502000       0.11446000       0.01744000
    90  N          0.14498000       0.88554000       0.98256000
    91  H          0.79220000       0.19910000       0.01640000
    92  H          0.20780000       0.80090000       0.98360000
