data_DITCES
_symmetry_space_group_name_H-M    'P1'
_symmetry_Int_Tables_number       1
loop_
_symmetry_equiv_pos_site_id
_symmetry_equiv_pos_as_xyz
1 x,y,z
_cell_length_a                   6.237701
_cell_length_b                   15.58973
_cell_length_c                   16.47113
_cell_angle_alpha                96.56201
_cell_angle_beta                 93.37601
_cell_angle_gamma                94.84401
loop_
_atom_site_label
_atom_site_type_symbol
_atom_site_fract_x
_atom_site_fract_y
_atom_site_fract_z
     1  I         -0.01365300       0.65244200       0.58967200
     2  I          0.01365300       0.34755800       0.41032800
     3  F          0.27277000       0.67391120       0.39490110
     4  F          0.72723000       0.32608880       0.60509890
     5  F          0.82437000       0.90059110       0.39596120
     6  F          0.17563000       0.09940890       0.60403880
     7  F          0.06593000       0.82753120       0.50065120
     8  F          0.93407000       0.17246880       0.49934880
     9  F          0.51087000       0.60217120       0.50327120
    10  F          0.48913000       0.39782880       0.49672880
    11  O          0.02126000       0.79464170       0.25368150
    12  O         -0.02126000       0.20535830       0.74631850
    13  N          0.40357000       0.81576140       0.32982130
    14  N          0.59643000       0.18423860       0.67017870
    15  C          0.46866000       0.71260160       0.42164150
    16  C          0.53134000       0.28739840       0.57835850
    17  C          0.54246000       0.78745160       0.38853140
    18  C          0.45754000       0.21254840       0.61146860
    19  C          0.74576000       0.82485160       0.41947150
    20  C          0.25424000       0.17514840       0.58052850
    21  C          0.31506000       0.88877160       0.21519140
    22  C          0.68494000       0.11122840       0.78480860
    23  C          0.79636000       0.71206170       0.50628150
    24  C          0.20364000       0.28793830       0.49371850
    25  C          0.86906000       0.78788170       0.47570160
    26  C          0.13094000       0.21211830       0.52429840
    27  C          0.59266000       0.67623170       0.47737160
    28  C          0.40734000       0.32376830       0.52262840
    29  C          0.46616000       0.86589170       0.27735150
    30  C          0.53384000       0.13410830       0.72264850
    31  H          0.61010000       0.88766300       0.27939700
    32  H          0.38990000       0.11233700       0.72060300
    33  C          0.38385000       0.94829180       0.16243170
    34  C          0.61615000       0.05170820       0.83756830
    35  H          0.52586900       0.97285200       0.16851400
    36  H          0.47413100       0.02714800       0.83148600
    37  C          0.10036000       0.85127180       0.20464160
    38  C          0.89964000       0.14872820       0.79535840
    39  C          0.24645000       0.97132000       0.10184170
    40  C          0.75355000       0.02868000       0.89815830
    41  H          0.29361200       0.01178700       0.06791500
    42  H          0.70638800       0.98821300       0.93208500
    43  C          0.03615000       0.93292000       0.09241180
    44  C          0.96385000       0.06708000       0.90758820
    45  H          0.94236700       0.94756200       0.05125800
    46  H          0.05763300       0.05243800       0.94874200
    47  C          0.96315000       0.87342000       0.14290190
    48  C          0.03685000       0.12658000       0.85709810
    49  H          0.82179600       0.84815600       0.13535600
    50  H          0.17820400       0.15184400       0.86464400
    51  H          0.12830000       0.79630000       0.29330000
    52  H          0.87170000       0.20370000       0.70670000
    53  I          0.54176300       0.35294200       0.89967200
    54  I          0.45823700       0.64705800       0.10032800
    55  F          0.68713000       0.10888110       0.09944120
    56  F          0.31287000       0.89111890       0.90055880
    57  F          0.24923000       0.33024120       0.09637120
    58  F          0.75077000       0.66975880       0.90362880
    59  F          0.45223000       0.18074130      -0.00820880
    60  F          0.54777000       0.81925870       0.00820880
    61  F          0.02063000       0.39910130       0.98339130
    62  F         -0.02063000       0.60089870       0.01660870
    63  O          0.48924000       0.21277180       0.24374160
    64  O          0.51076000       0.78722820       0.75625840
    65  N          0.10974000       0.19197140       0.16516130
    66  N          0.89026000       0.80802860       0.83483870
    67  C         -0.02486000       0.21906160       0.10420150
    68  C          0.02486000       0.78093840       0.89579850
    69  C          0.77004000       0.18273160       0.07393150
    70  C          0.22996000       0.81726840       0.92606850
    71  C          0.72784000       0.29262180       0.98296160
    72  C          0.27216000       0.70737820       0.01703840
    73  C          0.19124000       0.12004160       0.28165150
    74  C          0.80876000       0.87995840       0.71834850
    75  C          0.65074000       0.21886180       0.01575160
    76  C          0.34926000       0.78113820       0.98424840
    77  C          0.05394000       0.29158170       0.06930160
    78  C          0.94606000       0.70841830       0.93069840
    79  C          0.04374000       0.14283180       0.21827160
    80  C          0.95626000       0.85716820       0.78172840
    81  H          0.89915800       0.12176300       0.21573700
    82  H          0.10084200       0.87823700       0.78426300
    83  C          0.11965000       0.06112180       0.33408170
    84  C          0.88035000       0.93887820       0.66591830
    85  H         -0.02270300       0.03695800       0.32736100
    86  H          0.02270300       0.96304200       0.67263900
    87  C          0.40794000       0.15652180       0.29271170
    88  C          0.59206000       0.84347820       0.70728830
    89  C          0.93385000       0.32701180       0.01109170
    90  C          0.06615000       0.67298820       0.98890830
    91  C          0.25415000       0.03782000       0.39549180
    92  C          0.74585000       0.96218000       0.60450820
    93  H          0.20410000      -0.00204500       0.42953900
    94  H          0.79590000       0.00204500       0.57046100
    95  C          0.54135000       0.13402000       0.35549190
    96  C          0.45865000       0.86598000       0.64450810
    97  H          0.68286000       0.15892400       0.36398600
    98  H          0.31714000       0.84107600       0.63601400
    99  C          0.46505000       0.07472000       0.40563190
   100  C          0.53495000       0.92528000       0.59436810
   101  H          0.55708000       0.05924500       0.44691500
   102  H          0.44292000       0.94075500       0.55308500
   103  H          0.39170000       0.20730000       0.20130000
   104  H          0.60830000       0.79270000       0.79870000
   105  N          0.19934000       0.55568140       0.69593130
   106  N          0.80066000       0.44431860       0.30406870
   107  N          0.33194000       0.45313150       0.79442140
   108  N          0.66806000       0.54686850       0.20557860
   109  C          0.16355000       0.58832000       0.77927180
   110  C          0.83645000       0.41168000       0.22072820
   111  H          0.01077600       0.59321800       0.78435100
   112  H         -0.01077600       0.40678200       0.21564900
   113  H          0.23898000       0.64563600       0.79308000
   114  H          0.76102000       0.35436400       0.20692000
   115  C          0.42995000       0.55002000       0.68962000
   116  C          0.57005000       0.44998000       0.31038000
   117  H          0.50664200       0.60708300       0.70273400
   118  H          0.49335800       0.39291700       0.29726600
   119  H          0.45721600       0.52805100       0.63398800
   120  H          0.54278400       0.47194900       0.36601200
   121  C          0.17106000       0.40802000       0.73502000
   122  C          0.82894000       0.59198000       0.26498000
   123  H          0.05020800       0.38488100       0.76290500
   124  H          0.94979200       0.61511900       0.23709500
   125  H          0.23145500       0.35966200       0.70481000
   126  H          0.76854500       0.64033800       0.29519000
   127  C          0.09076000       0.46932000       0.67462000
   128  C          0.90924000       0.53068000       0.32538000
   129  H          0.11957600       0.44737100       0.61916000
   130  H          0.88042400       0.55262900       0.38084000
   131  H          0.93615600       0.47161200       0.67669700
   132  H          0.06384400       0.52838800       0.32330300
   133  C          0.24556000       0.52662000       0.83928190
   134  C          0.75444000       0.47338000       0.16071810
   135  H          0.35673200       0.55778400       0.87779000
   136  H          0.64326800       0.44221600       0.12221000
   137  H          0.12756000       0.50620400       0.87007500
   138  H          0.87244000       0.49379600       0.12992500
   139  C          0.51105000       0.48842000       0.74972000
   140  C          0.48895000       0.51158000       0.25028000
   141  H          0.57501100       0.44109800       0.71941600
   142  H          0.42498900       0.55890200       0.28058400
   143  H          0.62129800       0.51982800       0.78845100
   144  H          0.37870200       0.48017200       0.21154900
