data_DITCOC
_symmetry_space_group_name_H-M    'P1'
_symmetry_Int_Tables_number       1
loop_
_symmetry_equiv_pos_site_id
_symmetry_equiv_pos_as_xyz
1 x,y,z
_cell_length_a                   6.401101
_cell_length_b                   7.69053
_cell_length_c                   19.01004
_cell_angle_alpha                89.6452
_cell_angle_beta                 84.0792
_cell_angle_gamma                67.7812
loop_
_atom_site_label
_atom_site_type_symbol
_atom_site_fract_x
_atom_site_fract_y
_atom_site_fract_z
     1  I          0.37331300       0.77804200       0.69324200
     2  I          0.62668700       0.22195800       0.30675800
     3  F          0.25192000       0.35172000       0.70912800
     4  F          0.74808000       0.64828000       0.29087200
     5  F          0.73803000       0.29252000       0.89578800
     6  F          0.26197000       0.70748000       0.10421200
     7  F          0.90883000       0.60463000       0.65076800
     8  F          0.09117000       0.39537000       0.34923200
     9  F          0.39462000       0.53542000       0.83574900
    10  F          0.60538000       0.46458000       0.16425100
    11  O          0.64453000       0.03373000       0.80101100
    12  O          0.35547000       0.96627000       0.19898900
    13  N          0.20634000       0.18343000       0.82795110
    14  N          0.79366000       0.81657000       0.17204890
    15  C          0.00874000       0.31064000       0.80398130
    16  C         -0.00874000       0.68936000       0.19601870
    17  C          0.64064000       0.57954000       0.74099130
    18  C          0.35936000       0.42046000       0.25900870
    19  C          0.04014000       0.39844000       0.74107130
    20  C          0.95986000       0.60156000       0.25892870
    21  C          0.78434000       0.36504000       0.83425130
    22  C          0.21566000       0.63496000       0.16574870
    23  C          0.86284000       0.52824000       0.71153130
    24  C          0.13716000       0.47176000       0.28846870
    25  C          0.60634000       0.49304000       0.80363140
    26  C          0.39366000       0.50696000       0.19636860
    27  C          0.43514000       0.94276000       0.89743140
    28  C          0.56486000       0.05724000       0.10256860
    29  C          0.64035000       0.92816000       0.85767140
    30  C          0.35965000       0.07184000       0.14232860
    31  C          0.21575000       0.07394000       0.88006140
    32  C          0.78425000       0.92606000       0.11993860
    33  H          0.08006900       0.07878000       0.90705400
    34  H          0.91993100       0.92122000       0.09294600
    35  C          0.84585000       0.80106000       0.87693150
    36  C          0.15415000       0.19894000       0.12306850
    37  H          0.98459500       0.79150400       0.85070200
    38  H          0.01540500       0.20849600       0.14929800
    39  C          0.44285000       0.82746000       0.95522150
    40  C          0.55715000       0.17254000       0.04477850
    41  H          0.30538700       0.83552500       0.98191100
    42  H          0.69461300       0.16447500       0.01808900
    43  C          0.64675000       0.70286000       0.97387150
    44  C          0.35325000       0.29714000       0.02612850
    45  H          0.65028300       0.62664700       0.01360300
    46  H          0.34971700       0.37335300       0.98639700
    47  C          0.84775000       0.68926000       0.93409160
    48  C          0.15225000       0.31074000       0.06590840
    49  H          0.98837100       0.60173800       0.94648100
    50  H          0.01162900       0.39826200       0.05351900
    51  H          0.48170000       0.10060000       0.79720000
    52  H          0.51830000       0.89940000       0.20280000
    53  N          0.05504000       0.04264000       0.61783140
    54  N          0.94496000       0.95736000       0.38216860
    55  C          0.76665000       0.32044000       0.53804140
    56  C          0.23335000       0.67956000       0.46195860
    57  C          0.13495000       0.11145000       0.56190170
    58  C          0.86505000       0.88855000       0.43809830
    59  H          0.29454200       0.06471900       0.54949200
    60  H          0.70545800       0.93528100       0.45050800
    61  C          0.83175000       0.10665000       0.63387150
    62  C          0.16825000       0.89335000       0.36612850
    63  H          0.77196900       0.05640800       0.67314000
    64  H          0.22803100       0.94359200       0.32686000
    65  C         -0.00175000       0.24745000       0.52060160
    66  C          0.00175000       0.75255000       0.47939840
    67  H          0.06397900       0.29015700       0.48045900
    68  H          0.93602100       0.70984300       0.51954100
    69  C          0.68085000       0.24455000       0.59563150
    70  C          0.31915000       0.75545000       0.40436850
    71  H          0.52178700       0.28625100       0.60859200
    72  H          0.47821300       0.71374900       0.39140800
    73  C          0.61985000       0.48136000       0.49661180
    74  C          0.38015000       0.51864000       0.50338820
    75  H          0.63930500       0.59699300       0.51137500
    76  H          0.36069500       0.40300700       0.48862500
    77  H          0.67819400       0.45555600       0.44589500
    78  H          0.32180600       0.54444400       0.55410500
