data_DITJOG
_symmetry_space_group_name_H-M    'P1'
_symmetry_Int_Tables_number       1
loop_
_symmetry_equiv_pos_site_id
_symmetry_equiv_pos_as_xyz
1 x,y,z
_cell_length_a                   9.34205
_cell_length_b                   11.51457
_cell_length_c                   12.26688
_cell_angle_alpha                94.3674
_cell_angle_beta                 104.2273
_cell_angle_gamma                107.0843
loop_
_atom_site_label
_atom_site_type_symbol
_atom_site_fract_x
_atom_site_fract_y
_atom_site_fract_z
     1  Cl         0.52636500       0.82464400       0.04531400
     2  Cl         0.47363500       0.17535600       0.95468600
     3  Cl         0.39581600       0.58411500       0.86386600
     4  Cl         0.60418400       0.41588500       0.13613400
     5  Cl         0.15339500       0.35042400       0.90199600
     6  Cl         0.84660500       0.64957600       0.09800400
     7  Cl         0.03359500       0.36227400       0.11907400
     8  Cl         0.96640500       0.63772600       0.88092600
     9  Cl         0.17436600       0.59781400       0.30179400
    10  Cl         0.82563400       0.40218600       0.69820600
    11  O          0.40459140       0.80056110       0.24450100
    12  O          0.59540860       0.19943890       0.75549900
    13  C          0.34843180       0.70149150       0.16799140
    14  C          0.65156820       0.29850850       0.83200860
    15  C          0.39369180       0.69378150       0.06628140
    16  C          0.60630820       0.30621850       0.93371860
    17  C          0.33501190       0.58726160       0.98585860
    18  C          0.66498810       0.41273840       0.01414140
    19  C          0.22631180       0.48289140       0.00188130
    20  C          0.77368820       0.51710860      -0.00188130
    21  C          0.17515180       0.48779140       0.09928130
    22  C          0.82484820       0.51220860       0.90071870
    23  C          0.23639190       0.59404150       0.18064130
    24  C          0.76360810       0.40595850       0.81935870
    25  Cl         0.81450500       0.11198300       0.59906300
    26  Cl         0.18549500       0.88801700       0.40093700
    27  Cl         0.10025500       0.06587400       0.76302400
    28  Cl         0.89974500       0.93412600       0.23697600
    29  Cl         0.16661500       0.81797500       0.72037400
    30  Cl         0.83338500       0.18202500       0.27962600
    31  Cl         0.94982600       0.62042400       0.50857400
    32  Cl         0.05017400       0.37957600       0.49142600
    33  Cl         0.66481500       0.66813400       0.34716400
    34  Cl         0.33518500       0.33186600       0.65283600
    35  O          0.63098150       0.91169110       0.41818110
    36  O          0.36901850       0.08830890       0.58181890
    37  H          0.57530000       0.86020000       0.36720000
    38  H          0.42470000       0.13980000       0.63280000
    39  C          0.75202180       0.88634140       0.48339130
    40  C          0.24797820       0.11365860       0.51660870
    41  C          0.85239180       0.97525140       0.57636130
    42  C          0.14760820       0.02474860       0.42363870
    43  C         -0.02123820       0.95439150       0.64977130
    44  C          0.02123820       0.04560850       0.35022870
    45  C          0.00854190       0.84331160       0.63044140
    46  C         -0.00854190       0.15668840       0.36955860
    47  C          0.91156190       0.75523150       0.53723140
    48  C          0.08843810       0.24476850       0.46276860
    49  C          0.78437190       0.77599140       0.46416140
    50  C          0.21562810       0.22400860       0.53583860
    51  N          0.38113160       0.01898130       0.22985110
    52  N          0.61886840       0.98101870       0.77014890
    53  H          0.39120000       0.94120000       0.23011700
    54  H          0.60880000       0.05880000       0.76988300
    55  C          0.27220180       0.03719150       0.14449140
    56  C          0.72779820       0.96280850       0.85550860
    57  C          0.25006190       0.15105160       0.15059150
    58  C          0.74993810       0.84894840       0.84940850
    59  H          0.17370000       0.16640000       0.09170000
    60  H          0.82630000       0.83360000       0.90830000
    61  C          0.33924190       0.24249150       0.24250150
    62  C          0.66075810       0.75750850       0.75749850
    63  H          0.32230000       0.31990000       0.24660000
    64  H          0.67770000       0.68010000       0.75340000
    65  C          0.45382190       0.22276150       0.32941140
    66  C          0.54617810       0.77723850       0.67058860
    67  C          0.46967190       0.10678150       0.31976140
    68  C          0.53032810       0.89321850       0.68023860
    69  H          0.54460000       0.08880000       0.37780000
    70  H          0.45540000       0.91120000       0.62220000
    71  C          0.18232000       0.93168170       0.04933150
    72  C          0.81768000       0.06831830       0.95066850
    73  H          0.25520000       0.90310000       0.01800000
    74  H          0.74480000       0.09690000       0.98200000
    75  H          0.11460000       0.95870000      -0.01070000
    76  H          0.88540000       0.04130000       0.01070000
    77  H          0.11840000       0.86430000       0.07840000
    78  H          0.88160000       0.13570000       0.92160000
    79  C          0.55772000       0.32113170       0.42792160
    80  C          0.44228000       0.67886830       0.57207840
    81  H          0.58200000       0.28350000       0.49620000
    82  H          0.41800000       0.71650000       0.50380000
    83  H          0.50420000       0.38000000       0.44150000
    84  H          0.49580000       0.62000000       0.55850000
    85  H          0.65460000       0.36400000       0.41030000
    86  H          0.34540000       0.63600000       0.58970000
