data_DIVCUH
_symmetry_space_group_name_H-M    'P1'
_symmetry_Int_Tables_number       1
loop_
_symmetry_equiv_pos_site_id
_symmetry_equiv_pos_as_xyz
1 x,y,z
_cell_length_a                   5.27772
_cell_length_b                   6.09482
_cell_length_c                   10.30193
_cell_angle_alpha                90.8512
_cell_angle_beta                 96.9342
_cell_angle_gamma                99.11301
loop_
_atom_site_label
_atom_site_type_symbol
_atom_site_fract_x
_atom_site_fract_y
_atom_site_fract_z
     1  I          0.14974400       0.27124300       0.20563318
     2  I          0.85025600       0.72875700       0.79436682
     3  F          0.27125000       0.34474000       0.90758000
     4  F          0.72875000       0.65526000       0.09242000
     5  F          0.46765000       0.86186000       0.24772000
     6  F          0.53235000       0.13814000       0.75228000
     7  C          0.35876000       0.10855000       0.08303000
     8  C          0.64124000       0.89145000       0.91697000
     9  C          0.38517000       0.17515000       0.95577000
    10  C          0.61483000       0.82485000       0.04423000
    11  C          0.47787000       0.93055000       0.12433000
    12  C          0.52213000       0.06945000       0.87567000
    13  N          0.85434000       0.46775000       0.37463000
    14  N          0.14566000       0.53225000       0.62537000
    15  C          0.78943000       0.31936000       0.48114000
    16  C          0.21057000       0.68064000       0.51886000
    17  H          0.71570000       0.17170000       0.44540000
    18  H          0.28430000       0.82830000       0.55460000
    19  H          0.66280000       0.37490000       0.52800000
    20  H          0.33720000       0.62510000       0.47200000
    21  C         -0.03217000       0.69146000       0.42663000
    22  C          0.03217000       0.30854000       0.57337000
    23  H          0.84440000       0.75340000       0.47280000
    24  H          0.15560000       0.24660000       0.52720000
    25  H          0.00920000       0.78730000       0.35530000
    26  H         -0.00920000       0.21270000       0.64470000
    27  H          0.71500000       0.47860000       0.31860000
    28  H          0.28500000       0.52140000       0.68140000
