data_DIVDAO
_symmetry_space_group_name_H-M    'P1'
_symmetry_Int_Tables_number       1
loop_
_symmetry_equiv_pos_site_id
_symmetry_equiv_pos_as_xyz
1 x,y,z
_cell_length_a                   4.398101
_cell_length_b                   6.46122
_cell_length_c                   12.11204
_cell_angle_alpha                81.97601
_cell_angle_beta                 88.00201
_cell_angle_gamma                81.15901
loop_
_atom_site_label
_atom_site_type_symbol
_atom_site_fract_x
_atom_site_fract_y
_atom_site_fract_z
     1  I          0.23483400       0.20353300       0.22985014
     2  I          0.76516600       0.79646700       0.77014986
     3  F          0.27985000       0.35043000       0.96557810
     4  F          0.72015000       0.64957000       0.03442190
     5  F          0.91524000       0.80047000       0.20808160
     6  F          0.08476000       0.19953000       0.79191840
     7  C          0.09996000       0.08144000       0.09262000
     8  C          0.90004000       0.91856000       0.90738000
     9  C          0.13976000       0.17854000       0.98478000
    10  C          0.86024000       0.82146000       0.01522000
    11  C          0.95874000       0.90076000       0.10572000
    12  C          0.04126000       0.09924000       0.89428000
    13  O          0.38646000       0.38824000       0.42322000
    14  O          0.61354000       0.61176000       0.57678000
    15  C          0.54159000       0.56416000       0.38683000
    16  C          0.45841000       0.43584000       0.61317000
    17  H          0.45920000       0.63590000       0.31600000
    18  H          0.54080000       0.36410000       0.68400000
    19  H          0.75890000       0.51510000       0.37600000
    20  H          0.24110000       0.48490000       0.62400000
    21  C          0.49881000       0.28505000       0.52853000
    22  C          0.50119000       0.71495000       0.47147000
    23  H          0.71520000       0.22910000       0.52140000
    24  H          0.28480000       0.77090000       0.47860000
    25  H          0.38840000       0.16760000       0.55330000
    26  H          0.61160000       0.83240000       0.44670000
