data_DIVDOC
_symmetry_space_group_name_H-M    'P1'
_symmetry_Int_Tables_number       1
loop_
_symmetry_equiv_pos_site_id
_symmetry_equiv_pos_as_xyz
1 x,y,z
_cell_length_a                   5.12351
_cell_length_b                   5.90632
_cell_length_c                   10.28514
_cell_angle_alpha                93.3852
_cell_angle_beta                 95.9702
_cell_angle_gamma                98.9472
loop_
_atom_site_label
_atom_site_type_symbol
_atom_site_fract_x
_atom_site_fract_y
_atom_site_fract_z
     1  Br         0.15506400       0.75747300       0.19967419
     2  Br         0.84493600       0.24252700       0.80032581
     3  F          0.25894000       0.85213000       0.91666830
     4  F          0.74106000       0.14787000       0.08333170
     5  F          0.46144000       0.35543000       0.24411150
     6  F          0.53856000       0.64457000       0.75588850
     7  C          0.35154000       0.60963000       0.08522190
     8  C          0.64846000       0.39037000       0.91477810
     9  C          0.37764000       0.68023000       0.96018000
    10  C          0.62236000       0.31977000       0.03982000
    11  C          0.47634000       0.42783000       0.12355190
    12  C          0.52366000       0.57217000       0.87644810
    13  N          0.15574000       0.03443000       0.62347180
    14  N          0.84426000       0.96557000       0.37652820
    15  C          0.03544000       0.80256000       0.56902000
    16  C          0.96456000       0.19744000       0.43098000
    17  H         -0.00380000       0.70510000       0.63950000
    18  H          0.00380000       0.29490000       0.36050000
    19  H          0.15820000       0.73660000       0.51830000
    20  H          0.84180000       0.26340000       0.48170000
    21  C          0.21944000       0.18414000       0.51812000
    22  C          0.78056000       0.81586000       0.48188000
    23  H          0.34440000       0.12270000       0.46680000
    24  H          0.65560000       0.87730000       0.53320000
    25  H          0.30060000       0.33660000       0.55540000
    26  H          0.69940000       0.66340000       0.44460000
    27  H          0.30970000       0.02310000       0.68450000
    28  H          0.69030000      -0.02310000       0.31550000
