data_DIWGOG
_symmetry_space_group_name_H-M    'P1'
_symmetry_Int_Tables_number       1
loop_
_symmetry_equiv_pos_site_id
_symmetry_equiv_pos_as_xyz
1 x,y,z
_cell_length_a                   21.561016
_cell_length_b                   7.23785
_cell_length_c                   12.15209
_cell_angle_alpha                90.0
_cell_angle_beta                 92.58001
_cell_angle_gamma                90.0
loop_
_atom_site_label
_atom_site_type_symbol
_atom_site_fract_x
_atom_site_fract_y
_atom_site_fract_z
     1  O          0.13609600       0.52680190       0.30675100
     2  O          0.63609600       0.02680190       0.30675100
     3  O          0.86390400       0.52680190       0.19324900
     4  O          0.36390400       0.02680190       0.19324900
     5  O          0.86390400       0.47319810       0.69324900
     6  O          0.36390400       0.97319810       0.69324900
     7  O          0.13609600       0.47319810       0.80675100
     8  O          0.63609600       0.97319810       0.80675100
     9  H          0.15891100       0.61340000       0.34221900
    10  H          0.65891100       0.11340000       0.34221900
    11  H          0.84108900       0.61340000       0.15778100
    12  H          0.34108900       0.11340000       0.15778100
    13  H          0.84108900       0.38660000       0.65778100
    14  H          0.34108900       0.88660000       0.65778100
    15  H          0.15891100       0.38660000       0.84221900
    16  H          0.65891100       0.88660000       0.84221900
    17  O          0.09343600       0.49642000       0.46669100
    18  O          0.59343600      -0.00358000       0.46669100
    19  O          0.90656400       0.49642000       0.03330900
    20  O          0.40656400      -0.00358000       0.03330900
    21  O          0.90656400       0.50358000       0.53330900
    22  O          0.40656400       0.00358000       0.53330900
    23  O          0.09343600       0.50358000       0.96669100
    24  O          0.59343600       0.00358000       0.96669100
    25  C          0.09471600       0.45762000       0.37100110
    26  C          0.59471600       0.95762000       0.37100110
    27  C          0.90528400       0.45762000       0.12899890
    28  C          0.40528400       0.95762000       0.12899890
    29  C          0.90528400       0.54238000       0.62899890
    30  C          0.40528400       0.04238000       0.62899890
    31  C          0.09471600       0.54238000       0.87100110
    32  C          0.59471600       0.04238000       0.87100110
    33  C          0.04885500       0.32848170       0.31155100
    34  C          0.54885500       0.82848170       0.31155100
    35  C          0.95114500       0.32848170       0.18844900
    36  C          0.45114500       0.82848170       0.18844900
    37  C          0.95114500       0.67151830       0.68844900
    38  C          0.45114500       0.17151830       0.68844900
    39  C          0.04885500       0.67151830       0.81155100
    40  C          0.54885500       0.17151830       0.81155100
    41  C          0.01594700       0.20662000       0.39395110
    42  C          0.51594700       0.70662000       0.39395110
    43  C          0.98405300       0.20662000       0.10604890
    44  C          0.48405300       0.70662000       0.10604890
    45  C          0.98405300       0.79338000       0.60604890
    46  C          0.48405300       0.29338000       0.60604890
    47  C          0.01594700       0.79338000       0.89395110
    48  C          0.51594700       0.29338000       0.89395110
    49  H         -0.00418000       0.28320000       0.44951400
    50  H          0.49582000       0.78320000       0.44951400
    51  H          0.00418000       0.28320000       0.05048600
    52  H          0.50418000       0.78320000       0.05048600
    53  H          0.00418000       0.71680000       0.55048600
    54  H          0.50418000       0.21680000       0.55048600
    55  H         -0.00418000       0.71680000       0.94951400
    56  H          0.49582000       0.21680000       0.94951400
    57  H          0.04828000       0.12720000       0.43311400
    58  H          0.54828000       0.62720000       0.43311400
    59  H          0.95172000       0.12720000       0.06688600
    60  H          0.45172000       0.62720000       0.06688600
    61  H          0.95172000       0.87280000       0.56688600
    62  H          0.45172000       0.37280000       0.56688600
    63  H          0.04828000       0.87280000       0.93311400
    64  H          0.54828000       0.37280000       0.93311400
    65  C          0.00000000       0.45112000       0.25000000
    66  C          0.50000000       0.95112000       0.25000000
    67  C         -0.00000000       0.54888000       0.75000000
    68  C          0.50000000       0.04888000       0.75000000
    69  H          0.97913000       0.52820000       0.30581200
    70  H          0.47913000       0.02820000       0.30581200
    71  H          0.02087000       0.52820000       0.19418800
    72  H          0.52087000       0.02820000       0.19418800
    73  H          0.02087000       0.47180000       0.69418800
    74  H          0.52087000       0.97180000       0.69418800
    75  H          0.97913000       0.47180000       0.80581200
    76  H          0.47913000       0.97180000       0.80581200
    77  C          0.08076600       0.20706190       0.22707120
    78  C          0.58076600       0.70706190       0.22707120
    79  C          0.91923400       0.20706190       0.27292880
    80  C          0.41923400       0.70706190       0.27292880
    81  C          0.91923400       0.79293810       0.77292880
    82  C          0.41923400       0.29293810       0.77292880
    83  C          0.08076600       0.79293810       0.72707120
    84  C          0.58076600       0.29293810       0.72707120
    85  H          0.10227000       0.28420000       0.17371300
    86  H          0.60227000       0.78420000       0.17371300
    87  H          0.89773000       0.28420000       0.32628700
    88  H          0.39773000       0.78420000       0.32628700
    89  H          0.89773000       0.71580000       0.82628700
    90  H          0.39773000       0.21580000       0.82628700
    91  H          0.10227000       0.71580000       0.67371300
    92  H          0.60227000       0.21580000       0.67371300
    93  H          0.11377000       0.12920000       0.26411300
    94  H          0.61377000       0.62920000       0.26411300
    95  H          0.88623000       0.12920000       0.23588700
    96  H          0.38623000       0.62920000       0.23588700
    97  H          0.88623000       0.87080000       0.73588700
    98  H          0.38623000       0.37080000       0.73588700
    99  H          0.11377000       0.87080000       0.76411300
   100  H          0.61377000       0.37080000       0.76411300
   101  C          0.96796300       0.08481190       0.33264120
   102  C          0.46796300       0.58481190       0.33264120
   103  C          0.03203700       0.08481190       0.16735880
   104  C          0.53203700       0.58481190       0.16735880
   105  C          0.03203700       0.91518810       0.66735880
   106  C          0.53203700       0.41518810       0.66735880
   107  C          0.96796300       0.91518810       0.83264120
   108  C          0.46796300       0.41518810       0.83264120
   109  H          0.94612000       0.00720000       0.38641400
   110  H          0.44612000       0.50720000       0.38641400
   111  H          0.05388000       0.00720000       0.11358600
   112  H          0.55388000       0.50720000       0.11358600
   113  H          0.05388000      -0.00720000       0.61358600
   114  H          0.55388000       0.49280000       0.61358600
   115  H          0.94612000      -0.00720000       0.88641400
   116  H          0.44612000       0.49280000       0.88641400
   117  C          0.00000000       0.96237000       0.25000000
   118  C          0.50000000       0.46237000       0.25000000
   119  C         -0.00000000       0.03763000       0.75000000
   120  C          0.50000000       0.53763000       0.75000000
   121  H          0.96802000       0.87870000       0.21071400
   122  H          0.46802000       0.37870000       0.21071400
   123  H          0.03198000       0.87870000       0.28928600
   124  H          0.53198000       0.37870000       0.28928600
   125  H          0.03198000       0.12130000       0.78928600
   126  H          0.53198000       0.62130000       0.78928600
   127  H          0.96802000       0.12130000       0.71071400
   128  H          0.46802000       0.62130000       0.71071400
   129  N          0.19746500       0.81941170       0.39186100
   130  N          0.69746500       0.31941170       0.39186100
   131  N          0.80253500       0.81941170       0.10813900
   132  N          0.30253500       0.31941170       0.10813900
   133  N          0.80253500       0.18058830       0.60813900
   134  N          0.30253500       0.68058830       0.60813900
   135  N          0.19746500       0.18058830       0.89186100
   136  N          0.69746500       0.68058830       0.89186100
   137  C          0.16828700       0.90492000       0.47075140
   138  C          0.66828700       0.40492000       0.47075140
   139  C          0.83171300       0.90492000       0.02924860
   140  C          0.33171300       0.40492000       0.02924860
   141  C          0.83171300       0.09508000       0.52924860
   142  C          0.33171300       0.59508000       0.52924860
   143  C          0.16828700       0.09508000       0.97075140
   144  C          0.66828700       0.59508000       0.97075140
   145  H          0.13309000       0.84330000       0.49951500
   146  H          0.63309000       0.34330000       0.49951500
   147  H          0.86691000       0.84330000       0.00048500
   148  H          0.36691000       0.34330000       0.00048500
   149  H          0.86691000       0.15670000       0.50048500
   150  H          0.36691000       0.65670000       0.50048500
   151  H          0.13309000       0.15670000      -0.00048500
   152  H          0.63309000       0.65670000      -0.00048500
   153  C          0.18683700       0.07272000       0.51509140
   154  C          0.68683700       0.57272000       0.51509140
   155  C          0.81316300       0.07272000       0.98490860
   156  C          0.31316300       0.57272000       0.98490860
   157  C          0.81316300       0.92728000       0.48490860
   158  C          0.31316300       0.42728000       0.48490860
   159  C          0.18683700       0.92728000       0.01509140
   160  C          0.68683700       0.42728000       0.01509140
   161  H          0.16319000       0.12730000       0.56901600
   162  H          0.66319000       0.62730000       0.56901600
   163  H          0.83681000       0.12730000       0.93098400
   164  H          0.33681000       0.62730000       0.93098400
   165  H          0.83681000       0.87270000       0.43098400
   166  H          0.33681000       0.37270000       0.43098400
   167  H          0.16319000       0.87270000       0.06901600
   168  H          0.66319000       0.37270000       0.06901600
   169  C          0.23917600       0.15934180       0.47739100
   170  C          0.73917600       0.65934180       0.47739100
   171  C          0.76082400       0.15934180       0.02260900
   172  C          0.26082400       0.65934180       0.02260900
   173  C          0.76082400       0.84065820       0.52260900
   174  C          0.26082400       0.34065820       0.52260900
   175  C          0.23917600       0.84065820       0.97739100
   176  C          0.73917600       0.34065820       0.97739100
   177  C          0.26991700       0.06922000       0.39601130
   178  C          0.76991700       0.56922000       0.39601130
   179  C          0.73008300       0.06922000       0.10398870
   180  C          0.23008300       0.56922000       0.10398870
   181  C          0.73008300       0.93078000       0.60398870
   182  C          0.23008300       0.43078000       0.60398870
   183  C          0.26991700       0.93078000       0.89601130
   184  C          0.76991700       0.43078000       0.89601130
   185  H          0.30669000       0.11730000       0.36681500
   186  H          0.80669000       0.61730000       0.36681500
   187  H          0.69331000       0.11730000       0.13318500
   188  H          0.19331000       0.61730000       0.13318500
   189  H          0.69331000       0.88270000       0.63318500
   190  H          0.19331000       0.38270000       0.63318500
   191  H          0.30669000       0.88270000       0.86681500
   192  H          0.80669000       0.38270000       0.86681500
   193  C          0.24781700       0.90222000       0.35584140
   194  C          0.74781700       0.40222000       0.35584140
   195  C          0.75218300       0.90222000       0.14415860
   196  C          0.25218300       0.40222000       0.14415860
   197  C          0.75218300       0.09778000       0.64415860
   198  C          0.25218300       0.59778000       0.64415860
   199  C          0.24781700       0.09778000       0.85584140
   200  C          0.74781700       0.59778000       0.85584140
   201  H          0.26928000       0.84030000       0.30021500
   202  H          0.76928000       0.34030000       0.30021500
   203  H          0.73072000       0.84030000       0.19978500
   204  H          0.23072000       0.34030000       0.19978500
   205  H          0.73072000       0.15970000       0.69978500
   206  H          0.23072000       0.65970000       0.69978500
   207  H          0.26928000       0.15970000       0.80021500
   208  H          0.76928000       0.65970000       0.80021500
