data_DIWHUM
_symmetry_space_group_name_H-M    'P1'
_symmetry_Int_Tables_number       1
loop_
_symmetry_equiv_pos_site_id
_symmetry_equiv_pos_as_xyz
1 x,y,z
_cell_length_a                   10.5253
_cell_length_b                   17.1965
_cell_length_c                   9.4513
_cell_angle_alpha                95.223
_cell_angle_beta                 92.323
_cell_angle_gamma                91.653
loop_
_atom_site_label
_atom_site_type_symbol
_atom_site_fract_x
_atom_site_fract_y
_atom_site_fract_z
     1  S          0.06212110       0.78648800       0.03855130
     2  S          0.93787890       0.21351200       0.96144870
     3  O          0.30163000       0.80382000       0.02754000
     4  O          0.69837000       0.19618000       0.97246000
     5  N          0.20724000       0.76922000       0.97306000
     6  N          0.79276000       0.23078000       0.02694000
     7  P          0.43116700       0.77667400       0.47637800
     8  P          0.56883300       0.22332600       0.52362200
     9  P          0.63487700       0.76231400       0.69605800
    10  P          0.36512300       0.23768600       0.30394200
    11  N          0.49722000       0.76191000       0.62342000
    12  N          0.50278000       0.23809000       0.37658000
    13  C          0.38243000       0.68491000       0.37903000
    14  C          0.61757000       0.31509000       0.62097000
    15  C          0.44913000       0.61842000       0.40514000
    16  C          0.55087000       0.38158000       0.59486000
    17  C          0.41253000       0.54652000       0.33424000
    18  C          0.58747000       0.45348000       0.66576000
    19  C          0.31033000       0.54042000       0.23944000
    20  C          0.68967000       0.45958000       0.76056000
    21  C          0.24453000       0.60602000       0.21144000
    22  C          0.75547000       0.39398000       0.78856000
    23  C          0.28063000       0.67832000       0.28154000
    24  C          0.71937000       0.32168000       0.71846000
    25  C          0.29172000       0.83171000       0.51023000
    26  C          0.70828000       0.16829000       0.48977000
    27  C          0.22833000       0.86582000       0.40073000
    28  C          0.77167000       0.13418000       0.59927000
    29  C          0.11733000       0.90482000       0.42743000
    30  C          0.88267000       0.09518000       0.57257000
    31  C          0.07073000       0.91102000       0.56314000
    32  C          0.92927000       0.08898000       0.43686000
    33  C          0.13483000       0.87792000       0.67273000
    34  C          0.86517000       0.12208000       0.32727000
    35  C          0.24503000       0.83762000       0.64683000
    36  C          0.75497000       0.16238000       0.35317000
    37  C          0.52843000       0.83231000       0.36803000
    38  C          0.47157000       0.16769000       0.63197000
    39  C          0.56693000       0.90812000       0.42553000
    40  C          0.43307000       0.09188000       0.57447000
    41  C          0.65353000       0.95132000       0.35643000
    42  C          0.34647000       0.04868000       0.64357000
    43  C          0.70103000       0.92072000       0.23044000
    44  C          0.29897000       0.07928000       0.76956000
    45  C          0.66083000       0.84722000       0.17114000
    46  C          0.33917000       0.15278000       0.82886000
    47  C          0.57453000       0.80252000       0.24003000
    48  C          0.42547000       0.19748000       0.75997000
    49  C          0.68633000       0.85852000       0.77193000
    50  C          0.31367000       0.14148000       0.22807000
    51  C          0.59593000       0.91512000       0.80053000
    52  C          0.40407000       0.08488000       0.19947000
    53  C          0.63333000       0.98932000       0.86053000
    54  C          0.36667000       0.01068000       0.13947000
    55  C          0.76053000       0.00692000       0.89433000
    56  C          0.23947000      -0.00692000       0.10567000
    57  C          0.85003000       0.95052000       0.86993000
    58  C          0.14997000       0.04948000       0.13007000
    59  C          0.81373000       0.87602000       0.80833000
    60  C          0.18627000       0.12398000       0.19167000
    61  C          0.62993000       0.69911000       0.83723000
    62  C          0.37007000       0.30089000       0.16277000
    63  C          0.73873000       0.68842000       0.91913000
    64  C          0.26127000       0.31158000       0.08087000
    65  C          0.73433000       0.63982000       0.02793000
    66  C          0.26567000       0.36018000       0.97207000
    67  C          0.62143000       0.60222000       0.05463000
    68  C          0.37857000       0.39778000       0.94537000
    69  C          0.51293000       0.61292000       0.97364000
    70  C          0.48707000       0.38708000       0.02636000
    71  C          0.51553000       0.66192000       0.86513000
    72  C          0.48447000       0.33808000       0.13487000
    73  C          0.75423000       0.72542000       0.57873000
    74  C          0.24577000       0.27458000       0.42127000
    75  C          0.81673000       0.77292000       0.49063000
    76  C          0.18327000       0.22708000       0.50937000
    77  C          0.89653000       0.74112000       0.38954000
    78  C          0.10347000       0.25888000       0.61046000
    79  C          0.91463000       0.66152000       0.37554000
    80  C          0.08537000       0.33848000       0.62446000
    81  C          0.85303000       0.61352000       0.46144000
    82  C          0.14697000       0.38648000       0.53856000
    83  C          0.77323000       0.64482000       0.56353000
    84  C          0.22677000       0.35518000       0.43647000
    85  H          0.52100000       0.62300000       0.47300000
    86  H          0.47900000       0.37700000       0.52700000
    87  H          0.46000000       0.50100000       0.35200000
    88  H          0.54000000       0.49900000       0.64800000
    89  H          0.28200000       0.49100000       0.19200000
    90  H          0.71800000       0.50900000       0.80800000
    91  H          0.17300000       0.60200000       0.14400000
    92  H          0.82700000       0.39800000       0.85600000
    93  H          0.23400000       0.72400000       0.26200000
    94  H          0.76600000       0.27600000       0.73800000
    95  H          0.26100000       0.86300000       0.30800000
    96  H          0.73900000       0.13700000       0.69200000
    97  H          0.07200000       0.92800000       0.35000000
    98  H          0.92800000       0.07200000       0.65000000
    99  H         -0.00600000       0.93900000       0.58300000
   100  H          0.00600000       0.06100000       0.41700000
   101  H          0.10200000       0.88200000       0.76700000
   102  H          0.89800000       0.11800000       0.23300000
   103  H          0.29000000       0.81400000       0.72300000
   104  H          0.71000000       0.18600000       0.27700000
   105  H          0.53200000       0.92900000       0.51300000
   106  H          0.46800000       0.07100000       0.48700000
   107  H          0.68200000       0.00200000       0.39700000
   108  H          0.31800000      -0.00200000       0.60300000
   109  H          0.76200000       0.95100000       0.18300000
   110  H          0.23800000       0.04900000       0.81700000
   111  H          0.69300000       0.82700000       0.08200000
   112  H          0.30700000       0.17300000       0.91800000
   113  H          0.54600000       0.75100000       0.19900000
   114  H          0.45400000       0.24900000       0.80100000
   115  H          0.50700000       0.90200000       0.77900000
   116  H          0.49300000       0.09800000       0.22100000
   117  H          0.57000000       0.02800000       0.88000000
   118  H          0.43000000       0.97200000       0.12000000
   119  H          0.78700000       0.05900000       0.93200000
   120  H          0.21300000       0.94100000       0.06800000
   121  H          0.93900000       0.96200000       0.89700000
   122  H          0.06100000       0.03800000       0.10300000
   123  H          0.87600000       0.83700000       0.79100000
   124  H          0.12400000       0.16300000       0.20900000
   125  H          0.81900000       0.71400000       0.89900000
   126  H          0.18100000       0.28600000       0.10100000
   127  H          0.81100000       0.63200000       0.08500000
   128  H          0.18900000       0.36800000       0.91500000
   129  H          0.61900000       0.56800000       0.13100000
   130  H          0.38100000       0.43200000       0.86900000
   131  H          0.43400000       0.58600000      -0.00700000
   132  H          0.56600000       0.41400000       0.00700000
   133  H          0.44000000       0.67000000       0.80700000
   134  H          0.56000000       0.33000000       0.19300000
   135  H          0.80400000       0.82800000       0.50100000
   136  H          0.19600000       0.17200000       0.49900000
   137  H          0.94000000       0.77400000       0.32800000
   138  H          0.06000000       0.22600000       0.67200000
   139  H          0.97000000       0.63900000       0.30600000
   140  H          0.03000000       0.36100000       0.69400000
   141  H          0.86600000       0.55800000       0.45000000
   142  H          0.13400000       0.44200000       0.55000000
   143  H          0.73100000       0.61100000       0.62400000
   144  H          0.26900000       0.38900000       0.37600000
   145  O          0.76174000       0.46322000       0.20535000
   146  O          0.23826000       0.53678000       0.79465000
   147  C          0.84694000       0.42302000       0.22814000
   148  C          0.15306000       0.57698000       0.77186000
   149  C          0.83384000       0.36503000       0.32966000
   150  C          0.16616000       0.63497000       0.67034000
   151  C          0.96935000       0.42793000       0.15946000
   152  C          0.03065000       0.57207000       0.84054000
   153  H          0.90900000       0.36400000       0.36400000
   154  H          0.09100000       0.63600000       0.63600000
   155  H          0.74900000       0.36800000       0.39200000
   156  H          0.25100000       0.63200000       0.60800000
   157  H          0.81800000       0.31900000       0.27300000
   158  H          0.18200000       0.68100000       0.72700000
   159  H          0.00100000       0.45500000       0.22700000
   160  H         -0.00100000       0.54500000       0.77300000
   161  H          0.98300000       0.36500000       0.09200000
   162  H          0.01700000       0.63500000       0.90800000
   163  H         -0.00200000       0.47700000       0.09100000
   164  H          0.00200000       0.52300000       0.90900000
