data_DIXGOJ
_symmetry_space_group_name_H-M    'P1'
_symmetry_Int_Tables_number       1
loop_
_symmetry_equiv_pos_site_id
_symmetry_equiv_pos_as_xyz
1 x,y,z
_cell_length_a                   6.66482
_cell_length_b                   11.97013
_cell_length_c                   26.20239
_cell_angle_alpha                90.0
_cell_angle_beta                 90.0
_cell_angle_gamma                90.0
loop_
_atom_site_label
_atom_site_type_symbol
_atom_site_fract_x
_atom_site_fract_y
_atom_site_fract_z
     1  S          0.61934160       0.62731800       0.38802400
     2  S          0.88065840       0.37268200       0.88802400
     3  S          0.11934160       0.87268200       0.61197600
     4  S          0.38065840       0.12731800       0.11197600
     5  Cl         0.00222000       0.52001110       0.45145500
     6  Cl         0.49778000       0.47998890       0.95145500
     7  Cl         0.50222000       0.97998890       0.54854500
     8  Cl        -0.00222000       0.02001110       0.04854500
     9  N          0.89075000       0.95922000       0.22829130
    10  N          0.60925000       0.04078000       0.72829130
    11  N          0.39075000       0.54078000       0.77170870
    12  N          0.10925000       0.45922000       0.27170870
    13  H          0.80940000       0.01630000       0.22931900
    14  H          0.69060000       0.98370000       0.72931900
    15  H          0.30940000       0.48370000       0.77068100
    16  H          0.19060000       0.51630000       0.27068100
    17  O          0.24514000       0.64442000       0.33098100
    18  O          0.25486000       0.35558000       0.83098100
    19  O          0.74514000       0.85558000       0.66901900
    20  O          0.75486000       0.14442000       0.16901900
    21  C          0.51506000       0.74943000       0.36400140
    22  C         -0.01506000       0.25057000       0.86400140
    23  C          0.01506000       0.75057000       0.63599860
    24  C          0.48494000       0.24943000       0.13599860
    25  C          0.90824000       0.76244000       0.19992190
    26  C          0.59176000       0.23756000       0.69992190
    27  C          0.40824000       0.73756000       0.80007810
    28  C          0.09176000       0.26244000       0.30007810
    29  H          0.85030000       0.69410000       0.21530000
    30  H          0.64970000       0.30590000       0.71530000
    31  H          0.35030000       0.80590000       0.78470000
    32  H          0.14970000       0.19410000       0.28470000
    33  H          0.92430000       0.74980000       0.16280000
    34  H          0.57570000       0.25020000       0.66280000
    35  H          0.42430000       0.75020000       0.83720000
    36  H          0.07570000       0.24980000       0.33720000
    37  C          0.11186000       0.78813000       0.22415160
    38  C          0.38814000       0.21187000       0.72415160
    39  C          0.61186000       0.71187000       0.77584840
    40  C          0.88814000       0.28813000       0.27584840
    41  H          0.20000000       0.72060000       0.22280000
    42  H          0.30000000       0.27940000       0.72280000
    43  H          0.70000000       0.77940000       0.77720000
    44  H          0.80000000       0.22060000       0.27720000
    45  C          0.81406000       0.70334000       0.41449140
    46  C          0.68594000       0.29666000       0.91449140
    47  C          0.31406000       0.79666000       0.58550860
    48  C          0.18594000       0.20334000       0.08550860
    49  C          0.97194000       0.93713000       0.28032150
    50  C          0.52806000       0.06287000       0.78032150
    51  C          0.47194000       0.56287000       0.71967850
    52  C          0.02806000       0.43713000       0.21967850
    53  H          0.86180000       0.93760000       0.30570000
    54  H          0.63820000       0.06240000       0.80570000
    55  H          0.36180000       0.56240000       0.69430000
    56  H          0.13820000       0.43760000       0.19430000
    57  H          0.06970000      -0.00420000       0.28980000
    58  H          0.43030000       0.00420000       0.78980000
    59  H          0.56970000       0.50420000       0.71020000
    60  H          0.93030000       0.49580000       0.21020000
    61  C          0.20886000       0.88434000       0.19540160
    62  C          0.29114000       0.11566000       0.69540160
    63  C          0.70886000       0.61566000       0.80459840
    64  C          0.79114000       0.38434000       0.30459840
    65  H          0.24600000       0.85980000       0.16060000
    66  H          0.25400000       0.14020000       0.66060000
    67  H          0.74600000       0.64020000       0.83940000
    68  H          0.75400000       0.35980000       0.33940000
    69  H          0.33240000       0.90830000       0.21330000
    70  H          0.16760000       0.09170000       0.71330000
    71  H          0.83240000       0.59170000       0.78670000
    72  H          0.66760000       0.40830000       0.28670000
    73  C          0.61736000       0.84183000       0.37695140
    74  C          0.88264000       0.15817000       0.87695140
    75  C          0.11736000       0.65817000       0.62304860
    76  C          0.38264000       0.34183000       0.12304860
    77  H          0.57750000       0.91520000       0.36760000
    78  H          0.92250000       0.08480000       0.86760000
    79  H          0.07750000       0.58480000       0.63240000
    80  H          0.42250000       0.41520000       0.13240000
    81  C          0.06136000       0.98144000       0.19237170
    82  C          0.43864000       0.01856000       0.69237170
    83  C          0.56136000       0.51856000       0.80762830
    84  C          0.93864000       0.48144000       0.30762830
    85  H          0.12950000       0.05190000       0.20190000
    86  H          0.37050000       0.94810000       0.70190000
    87  H          0.62950000       0.44810000       0.79810000
    88  H          0.87050000       0.55190000       0.29810000
    89  H          0.01010000      -0.01100000       0.15710000
    90  H          0.48990000       0.01100000       0.65710000
    91  H          0.51010000       0.51100000       0.84290000
    92  H         -0.01010000       0.48900000       0.34290000
    93  C          0.32825000       0.73533000       0.33354140
    94  C          0.17175000       0.26467000       0.83354140
    95  C          0.82825000       0.76467000       0.66645860
    96  C          0.67175000       0.23533000       0.16645860
    97  C          0.79306000       0.81764000       0.40641150
    98  C          0.70694000       0.18236000       0.90641150
    99  C          0.29306000       0.68236000       0.59358850
   100  C          0.20694000       0.31764000       0.09358850
   101  C          0.76964000       0.86244000       0.20943180
   102  C          0.73036000       0.13756000       0.70943180
   103  C          0.26964000       0.63756000       0.79056820
   104  C          0.23036000       0.36244000       0.29056820
   105  H          0.70040000       0.88310000       0.17740000
   106  H          0.79960000       0.11690000       0.67740000
   107  H          0.20040000       0.61690000       0.82260000
   108  H          0.29960000       0.38310000       0.32260000
   109  H          0.66670000       0.84230000       0.23510000
   110  H          0.83330000       0.15770000       0.73510000
   111  H          0.16670000       0.65770000       0.76490000
   112  H          0.33330000       0.34230000       0.26490000
   113  C          0.07515000       0.82223000       0.27975150
   114  C          0.42485000       0.17777000       0.77975150
   115  C          0.57515000       0.67777000       0.72024850
   116  C          0.92485000       0.32223000       0.22024850
   117  H         -0.01740000       0.76640000       0.29570000
   118  H          0.51740000       0.23360000       0.79570000
   119  H          0.48260000       0.73360000       0.70430000
   120  H          0.01740000       0.26640000       0.20430000
   121  C          0.11917000       0.73455000       0.46044160
   122  C          0.38083000       0.26545000       0.96044160
   123  C          0.61917000       0.76545000       0.53955840
   124  C          0.88083000       0.23455000       0.03955840
   125  H          0.23180000       0.70680000       0.47870000
   126  H          0.26820000       0.29320000       0.97870000
   127  H          0.73180000       0.79320000       0.52130000
   128  H          0.76820000       0.20680000       0.02130000
   129  C         -0.02083000       0.66204000       0.44191150
   130  C          0.52083000       0.33796000       0.94191150
   131  C          0.47917000       0.83796000       0.55808850
   132  C          0.02083000       0.16204000       0.05808850
   133  C          0.93827000       0.89244000       0.42586180
   134  C          0.56173000       0.10756000       0.92586180
   135  C          0.43827000       0.60756000       0.57413820
   136  C          0.06173000       0.39244000       0.07413820
   137  H          0.92590000       0.97060000       0.42050000
   138  H          0.57410000       0.02940000       0.92050000
   139  H          0.42590000       0.52940000       0.57950000
   140  H          0.07410000       0.47060000       0.07950000
   141  C          0.09767000       0.84935000       0.45272180
   142  C          0.40233000       0.15065000       0.95272180
   143  C          0.59767000       0.65065000       0.54727820
   144  C          0.90233000       0.34935000       0.04727820
   145  H          0.19540000       0.89870000       0.46630000
   146  H          0.30460000       0.10130000       0.96630000
   147  H          0.69540000       0.60130000       0.53370000
   148  H          0.80460000       0.39870000       0.03370000
   149  N          0.25855000       0.82763000       0.31013130
   150  N          0.24145000       0.17237000       0.81013130
   151  N          0.75855000       0.67237000       0.68986870
   152  N          0.74145000       0.32763000       0.18986870
   153  H          0.32550000       0.89020000       0.31001400
   154  H          0.17450000       0.10980000       0.81001400
   155  H          0.82550000       0.60980000       0.68998600
   156  H          0.67450000       0.39020000       0.18998600
   157  Cl         0.49446150       0.06111700       0.28083400
   158  Cl         0.00553850       0.93888300       0.78083400
   159  Cl        -0.00553850       0.43888300       0.71916600
   160  Cl         0.50553850       0.56111700       0.21916600
   161  O          0.69847000       0.14284000       0.38120170
   162  O          0.80153000       0.85716000       0.88120170
   163  O          0.19847000       0.35716000       0.61879830
   164  O          0.30153000       0.64284000       0.11879830
   165  H          0.65610000       0.12360000       0.35171500
   166  H          0.84390000       0.87640000       0.85171500
   167  H          0.15610000       0.37640000       0.64828500
   168  H          0.34390000       0.62360000       0.14828500
   169  C          0.53911300       0.19977000       0.40873000
   170  C          0.96088700       0.80023000       0.90873000
   171  C          0.03911300       0.30023000       0.59127000
   172  C          0.46088700       0.69977000       0.09127000
   173  H          0.49480000       0.26440000       0.38740000
   174  H          0.00520000       0.73560000       0.88740000
   175  H         -0.00520000       0.23560000       0.61260000
   176  H          0.50520000       0.76440000       0.11260000
   177  C          0.36021200       0.13117000       0.41963000
   178  C          0.13978800       0.86883000       0.91963000
   179  C          0.86021200       0.36883000       0.58037000
   180  C          0.63978800       0.63117000       0.08037000
   181  H          0.30820000       0.09980000       0.38770000
   182  H          0.19180000       0.90020000       0.88770000
   183  H          0.80820000       0.40020000       0.61230000
   184  H          0.69180000       0.59980000       0.11230000
   185  H          0.25690000       0.17770000       0.43560000
   186  H          0.24310000       0.82230000       0.93560000
   187  H          0.75690000       0.32230000       0.56440000
   188  H          0.74310000       0.67770000       0.06440000
   189  H          0.39680000       0.07020000       0.44290000
   190  H          0.10320000       0.92980000       0.94290000
   191  H          0.89680000       0.42980000       0.55710000
   192  H          0.60320000       0.57020000       0.05710000
   193  C          0.63920000       0.24631300       0.45594000
   194  C          0.86080000       0.75368700       0.95594000
   195  C          0.13920000       0.25368700       0.54406000
   196  C          0.36080000       0.74631300       0.04406000
   197  H          0.69330000       0.18480000       0.47630000
   198  H          0.80670000       0.81520000       0.97630000
   199  H          0.19330000       0.31520000       0.52370000
   200  H          0.30670000       0.68480000       0.02370000
   201  H          0.53950000       0.28750000       0.47610000
   202  H          0.96050000       0.71250000       0.97610000
   203  H          0.03950000       0.21250000       0.52390000
   204  H          0.46050000       0.78750000       0.02390000
   205  H          0.74730000       0.29680000       0.44590000
   206  H          0.75270000       0.70320000       0.94590000
   207  H          0.24730000       0.20320000       0.55410000
   208  H          0.25270000       0.79680000       0.05410000
