data_DIXGID
_symmetry_space_group_name_H-M    'P1'
_symmetry_Int_Tables_number       1
loop_
_symmetry_equiv_pos_site_id
_symmetry_equiv_pos_as_xyz
1 x,y,z
_cell_length_a                   6.691055
_cell_length_b                   12.110669
_cell_length_c                   26.21082
_cell_angle_alpha                90.0
_cell_angle_beta                 90.0
_cell_angle_gamma                90.0
loop_
_atom_site_label
_atom_site_type_symbol
_atom_site_fract_x
_atom_site_fract_y
_atom_site_fract_z
     1  S          0.60173160       0.63541800       0.38853400
     2  S          0.89826840       0.36458200       0.88853400
     3  S          0.10173160       0.86458200       0.61146600
     4  S          0.39826840       0.13541800       0.11146600
     5  Cl         0.96832000       0.51784110       0.45342500
     6  Cl         0.53168000       0.48215890       0.95342500
     7  Cl         0.46832000       0.98215890       0.54657500
     8  Cl         0.03168000       0.01784110       0.04657500
     9  N          0.89845000       0.97843000       0.22815130
    10  N          0.60155000       0.02157000       0.72815130
    11  N          0.39845000       0.52157000       0.77184870
    12  N          0.10155000       0.47843000       0.27184870
    13  H          0.81140000       0.03330000       0.22741900
    14  H          0.68860000       0.96670000       0.72741900
    15  H          0.31140000       0.46670000       0.77258100
    16  H          0.18860000       0.53330000       0.27258100
    17  O          0.23585000       0.66152000       0.32981110
    18  O          0.26415000       0.33848000       0.82981110
    19  O          0.73585000       0.83848000       0.67018890
    20  O          0.76415000       0.16152000       0.17018890
    21  C          0.51296000       0.75813000       0.36303140
    22  C         -0.01296000       0.24187000       0.86303140
    23  C          0.01296000       0.74187000       0.63696860
    24  C          0.48704000       0.25813000       0.13696860
    25  C          0.90933000       0.78404000       0.20008180
    26  C          0.59067000       0.21596000       0.70008180
    27  C          0.40933000       0.71596000       0.79991820
    28  C          0.09067000       0.28404000       0.29991820
    29  H          0.85040000       0.71680000       0.21540000
    30  H          0.64960000       0.28320000       0.71540000
    31  H          0.35040000       0.78320000       0.78460000
    32  H          0.14960000       0.21680000       0.28460000
    33  H          0.92410000       0.77170000       0.16290000
    34  H          0.57590000       0.22830000       0.66290000
    35  H          0.42410000       0.72830000       0.83710000
    36  H          0.07590000       0.27170000       0.33710000
    37  C          0.11327000       0.80713000       0.22393170
    38  C          0.38673000       0.19287000       0.72393170
    39  C          0.61327000       0.69287000       0.77606830
    40  C          0.88673000       0.30713000       0.27606830
    41  H          0.19840000       0.73940000       0.22230000
    42  H          0.30160000       0.26060000       0.72230000
    43  H          0.69840000       0.76060000       0.77770000
    44  H          0.80160000       0.23940000       0.27770000
    45  C          0.80307000       0.70364000       0.41463150
    46  C          0.69693000       0.29636000       0.91463150
    47  C          0.30307000       0.79636000       0.58536850
    48  C          0.19693000       0.20364000       0.08536850
    49  C         -0.01886000       0.95613000       0.28011140
    50  C          0.51886000       0.04387000       0.78011140
    51  C          0.48114000       0.54387000       0.71988860
    52  C          0.01886000       0.45613000       0.21988860
    53  H          0.87280000       0.95850000       0.30580000
    54  H          0.62720000       0.04150000       0.80580000
    55  H          0.37280000       0.54150000       0.69420000
    56  H          0.12720000       0.45850000       0.19420000
    57  H          0.08170000       0.01290000       0.28910000
    58  H          0.41830000       0.98710000       0.78910000
    59  H          0.58170000       0.48710000       0.71090000
    60  H          0.91830000       0.51290000       0.21090000
    61  C          0.21306000       0.90094000       0.19517160
    62  C          0.28694000       0.09906000       0.69517160
    63  C          0.71306000       0.59906000       0.80482840
    64  C          0.78694000       0.40094000       0.30482840
    65  H          0.25080000       0.87600000       0.16050000
    66  H          0.24920000       0.12400000       0.66050000
    67  H          0.75080000       0.62400000       0.83950000
    68  H          0.74920000       0.37600000       0.33950000
    69  H          0.33580000       0.92420000       0.21330000
    70  H          0.16420000       0.07580000       0.71330000
    71  H          0.83580000       0.57580000       0.78670000
    72  H          0.66420000       0.42420000       0.28670000
    73  C          0.62706000       0.84743000       0.37516150
    74  C          0.87294000       0.15257000       0.87516150
    75  C          0.12706000       0.65257000       0.62483850
    76  C          0.37294000       0.34743000       0.12483850
    77  H          0.59590000       0.92070000       0.36510000
    78  H          0.90410000       0.07930000       0.86510000
    79  H          0.09590000       0.57930000       0.63490000
    80  H          0.40410000       0.42070000       0.13490000
    81  C          0.06677000      -0.00166000       0.19155170
    82  C          0.43323000       0.00166000       0.69155170
    83  C          0.56677000       0.50166000       0.80844830
    84  C          0.93323000       0.49834000       0.30844830
    85  H          0.13610000       0.06800000       0.20020000
    86  H          0.36390000       0.93200000       0.70020000
    87  H          0.63610000       0.43200000       0.79980000
    88  H          0.86390000       0.56800000       0.29980000
    89  H          0.01420000       0.00450000       0.15640000
    90  H          0.48580000      -0.00450000       0.65640000
    91  H          0.51420000       0.49550000       0.84360000
    92  H         -0.01420000       0.50450000       0.34360000
    93  C          0.32726000       0.75033000       0.33295150
    94  C          0.17274000       0.24967000       0.83295150
    95  C          0.82726000       0.74967000       0.66704850
    96  C          0.67274000       0.25033000       0.16704850
    97  C          0.79876000       0.81864000       0.40472150
    98  C          0.70124000       0.18136000       0.90472150
    99  C          0.29876000       0.68136000       0.59527850
   100  C          0.20124000       0.31864000       0.09527850
   101  C          0.77304000       0.88344000       0.20982190
   102  C          0.72696000       0.11656000       0.70982190
   103  C          0.27304000       0.61656000       0.79017810
   104  C          0.22696000       0.38344000       0.29017810
   105  H          0.70290000       0.90400000       0.17800000
   106  H          0.79710000       0.09600000       0.67800000
   107  H          0.20290000       0.59600000       0.82200000
   108  H          0.29710000       0.40400000       0.32200000
   109  H          0.67150000       0.86430000       0.23590000
   110  H          0.82850000       0.13570000       0.73590000
   111  H          0.17150000       0.63570000       0.76410000
   112  H          0.32850000       0.36430000       0.26410000
   113  C          0.07916000       0.84053000       0.27953160
   114  C          0.42084000       0.15947000       0.77953160
   115  C          0.57916000       0.65947000       0.72046840
   116  C          0.92084000       0.34053000       0.22046840
   117  H         -0.01530000       0.78660000       0.29550000
   118  H          0.51530000       0.21340000       0.79550000
   119  H          0.48470000       0.71340000       0.70450000
   120  H          0.01530000       0.28660000       0.20450000
   121  C          0.11248000       0.72665000       0.46058180
   122  C          0.38752000       0.27335000       0.96058180
   123  C          0.61248000       0.77335000       0.53941820
   124  C          0.88752000       0.22665000       0.03941820
   125  H          0.22000000       0.69590000       0.47950000
   126  H          0.28000000       0.30410000       0.97950000
   127  H          0.72000000       0.80410000       0.52050000
   128  H          0.78000000       0.19590000       0.02050000
   129  C          0.96347000       0.65964000       0.44226160
   130  C          0.53653000       0.34036000       0.94226160
   131  C          0.46347000       0.84036000       0.55773840
   132  C          0.03653000       0.15964000       0.05773840
   133  C          0.95207000       0.88684000       0.42375180
   134  C          0.54793000       0.11316000       0.92375180
   135  C          0.45207000       0.61316000       0.57624820
   136  C          0.04793000       0.38684000       0.07624820
   137  H          0.94950000       0.96410000       0.41760000
   138  H          0.55050000       0.03590000       0.91760000
   139  H          0.44950000       0.53590000       0.58240000
   140  H          0.05050000       0.46410000       0.08240000
   141  C          0.10538000       0.84025000       0.45132000
   142  C          0.39462000       0.15975000       0.95132000
   143  C          0.60538000       0.65975000       0.54868000
   144  C          0.89462000       0.34025000       0.04868000
   145  H          0.20850000       0.88620000       0.46420000
   146  H          0.29150000       0.11380000       0.96420000
   147  H          0.70850000       0.61380000       0.53580000
   148  H          0.79150000       0.38620000       0.03580000
   149  N          0.26185000       0.84363000       0.30972130
   150  N          0.23815000       0.15637000       0.80972130
   151  N          0.76185000       0.65637000       0.69027870
   152  N          0.73815000       0.34363000       0.19027870
   153  H          0.32970000       0.90520000       0.30691900
   154  H          0.17030000       0.09480000       0.80691900
   155  H          0.82970000       0.59480000       0.69308100
   156  H          0.67030000       0.40520000       0.19308100
   157  Cl         0.49960150       0.07681800       0.28183400
   158  Cl         0.00039850       0.92318200       0.78183400
   159  Cl        -0.00039850       0.42318200       0.71816600
   160  Cl         0.50039850       0.57681800       0.21816600
   161  O          0.74167000       0.12585000       0.38134180
   162  O          0.75833000       0.87415000       0.88134180
   163  O          0.24167000       0.37415000       0.61865820
   164  O          0.25833000       0.62585000       0.11865820
   165  H          0.66090000       0.13460000       0.35720000
   166  H          0.83910000       0.86540000       0.85720000
   167  H          0.16090000       0.36540000       0.64280000
   168  H          0.33910000       0.63460000       0.14280000
   169  C          0.67531500       0.19078000       0.41724000
   170  C          0.82468500       0.80922000       0.91724000
   171  C          0.17531500       0.30922000       0.58276000
   172  C          0.32468500       0.69078000       0.08276000
   173  H          0.76150000       0.25700000       0.41840000
   174  H          0.73850000       0.74300000       0.91840000
   175  H          0.26150000       0.24300000       0.58160000
   176  H          0.23850000       0.75700000       0.08160000
   177  H          0.68910000       0.15210000       0.45030000
   178  H          0.81090000       0.84790000       0.95030000
   179  H          0.18910000       0.34790000       0.54970000
   180  H          0.31090000       0.65210000       0.04970000
   181  C          0.45241100       0.22925000       0.41132000
   182  C          0.04758900       0.77075000       0.91132000
   183  C          0.95241100       0.27075000       0.58868000
   184  C          0.54758900       0.72925000       0.08868000
   185  H          0.43710000       0.25400000       0.37510000
   186  H          0.06290000       0.74600000       0.87510000
   187  H          0.93710000       0.24600000       0.62490000
   188  H          0.56290000       0.75400000       0.12490000
   189  C          0.31611400       0.13188000       0.41773000
   190  C          0.18388600       0.86812000       0.91773000
   191  C          0.81611400       0.36812000       0.58227000
   192  C          0.68388600       0.63188000       0.08227000
   193  H          0.37150000       0.08180000       0.44340000
   194  H          0.12850000       0.91820000       0.94340000
   195  H          0.87150000       0.41820000       0.55660000
   196  H          0.62850000       0.58180000       0.05660000
   197  H          0.30390000       0.09270000       0.38510000
   198  H          0.19610000       0.90730000       0.88510000
   199  H          0.80390000       0.40730000       0.61490000
   200  H          0.69610000       0.59270000       0.11490000
   201  H          0.18390000       0.15730000       0.42870000
   202  H          0.31610000       0.84270000       0.92870000
   203  H          0.68390000       0.34270000       0.57130000
   204  H          0.81610000       0.65730000       0.07130000
   205  C          0.44330000       0.32598000       0.44164000
   206  C          0.05670000       0.67402000       0.94164000
   207  C          0.94330000       0.17402000       0.55836000
   208  C          0.55670000       0.82598000       0.05836000
   209  H          0.30420000       0.35130000       0.44370000
   210  H          0.19580000       0.64870000       0.94370000
   211  H          0.80420000       0.14870000       0.55630000
   212  H          0.69580000       0.85130000       0.05630000
   213  H          0.52560000       0.38370000       0.42610000
   214  H          0.97440000       0.61630000       0.92610000
   215  H          0.02560000       0.11630000       0.57390000
   216  H          0.47440000       0.88370000       0.07390000
   217  H          0.49290000       0.30950000       0.47590000
   218  H          0.00710000       0.69050000       0.97590000
   219  H         -0.00710000       0.19050000       0.52410000
   220  H          0.50710000       0.80950000       0.02410000
