data_DKPSAL10
_symmetry_space_group_name_H-M    'P1'
_symmetry_Int_Tables_number       1
loop_
_symmetry_equiv_pos_site_id
_symmetry_equiv_pos_as_xyz
1 x,y,z
_cell_length_a                   18.521
_cell_length_b                   5.4555
_cell_length_c                   8.7878
_cell_angle_alpha                90.0
_cell_angle_beta                 104.284
_cell_angle_gamma                90.0
loop_
_atom_site_label
_atom_site_type_symbol
_atom_site_fract_x
_atom_site_fract_y
_atom_site_fract_z
     1  O          0.54096000       0.16860000       0.22980000
     2  O          0.95904000       0.66860000       0.77020000
     3  O          0.45904000       0.83140000       0.77020000
     4  O          0.04096000       0.33140000       0.22980000
     5  N          0.45270000       0.32030000       0.02680000
     6  N          0.04730000       0.82030000       0.97320000
     7  N          0.54730000       0.67970000       0.97320000
     8  N          0.95270000       0.17970000       0.02680000
     9  C          0.57440000       0.51400000       0.10310000
    10  C          0.92560000       0.01400000       0.89690000
    11  C          0.42560000       0.48600000       0.89690000
    12  C          0.07440000      -0.01400000       0.10310000
    13  C          0.52030000       0.32060000       0.12300000
    14  C          0.97970000       0.82060000       0.87700000
    15  C          0.47970000       0.67940000       0.87700000
    16  C          0.02030000       0.17940000       0.12300000
    17  H          0.58800000       0.59700000       0.20300000
    18  H          0.91200000       0.09700000       0.79700000
    19  H          0.41200000       0.40300000       0.79700000
    20  H          0.08800000       0.90300000       0.20300000
    21  H          0.61800000       0.42900000       0.08400000
    22  H          0.88200000       0.92900000       0.91600000
    23  H          0.38200000       0.57100000       0.91600000
    24  H          0.11800000       0.07100000       0.08400000
    25  H          0.42000000       0.20200000       0.04600000
    26  H          0.08000000       0.70200000       0.95400000
    27  H          0.58000000       0.79800000       0.95400000
    28  H          0.92000000       0.29800000       0.04600000
    29  O          0.37265000       0.93010000       0.12420000
    30  O          0.12735000       0.43010000       0.87580000
    31  O          0.62735000       0.06990000       0.87580000
    32  O          0.87265000       0.56990000       0.12420000
    33  O          0.46754000       0.81190000       0.31750000
    34  O          0.03246000       0.31190000       0.68250000
    35  O          0.53246000       0.18810000       0.68250000
    36  O          0.96754000       0.68810000       0.31750000
    37  O          0.24010000       0.76290000       0.10970000
    38  O          0.25990000       0.26290000       0.89030000
    39  O          0.75990000       0.23710000       0.89030000
    40  O          0.74010000       0.73710000       0.10970000
    41  C          0.35250000       0.60800000       0.28730000
    42  C          0.14750000       0.10800000       0.71270000
    43  C          0.64750000       0.39200000       0.71270000
    44  C          0.85250000       0.89200000       0.28730000
    45  C          0.27540000       0.60080000       0.21970000
    46  C          0.22460000       0.10080000       0.78030000
    47  C          0.72460000       0.39920000       0.78030000
    48  C          0.77540000       0.89920000       0.21970000
    49  C          0.23200000       0.43810000       0.27630000
    50  C          0.26800000       0.93810000       0.72370000
    51  C          0.76800000       0.56190000       0.72370000
    52  C          0.73200000       0.06190000       0.27630000
    53  C          0.26460000       0.25000000       0.37360000
    54  C          0.23540000       0.75000000       0.62640000
    55  C          0.73540000       0.75000000       0.62640000
    56  C          0.76460000       0.25000000       0.37360000
    57  C          0.34100000       0.25280000       0.44330000
    58  C          0.15900000       0.75280000       0.55670000
    59  C          0.65900000       0.74720000       0.55670000
    60  C          0.84100000       0.24720000       0.44330000
    61  C          0.38380000       0.43120000       0.39970000
    62  C          0.11620000       0.93120000       0.60030000
    63  C          0.61620000       0.56880000       0.60030000
    64  C          0.88380000       0.06880000       0.39970000
    65  C          0.39790000       0.79660000       0.23650000
    66  C          0.10210000       0.29660000       0.76350000
    67  C          0.60210000       0.20340000       0.76350000
    68  C          0.89790000       0.70340000       0.23650000
    69  H          0.17900000       0.42400000       0.22300000
    70  H          0.32100000       0.92400000       0.77700000
    71  H          0.82100000       0.57600000       0.77700000
    72  H          0.67900000       0.07600000       0.22300000
    73  H          0.23500000       0.11400000       0.41000000
    74  H          0.26500000       0.61400000       0.59000000
    75  H          0.76500000       0.88600000       0.59000000
    76  H          0.73500000       0.38600000       0.41000000
    77  H          0.36400000       0.13300000       0.51300000
    78  H          0.13600000       0.63300000       0.48700000
    79  H          0.63600000       0.86700000       0.48700000
    80  H          0.86400000       0.36700000       0.51300000
    81  H          0.43500000       0.43800000       0.44400000
    82  H          0.06500000       0.93800000       0.55600000
    83  H          0.56500000       0.56200000       0.55600000
    84  H          0.93500000       0.06200000       0.44400000
    85  H          0.28100000       0.88200000       0.09100000
    86  H          0.21900000       0.38200000       0.90900000
    87  H          0.71900000       0.11800000       0.90900000
    88  H          0.78100000       0.61800000       0.09100000
    89  H          0.49200000       0.94500000       0.28200000
    90  H          0.00800000       0.44500000       0.71800000
    91  H          0.50800000       0.05500000       0.71800000
    92  H         -0.00800000       0.55500000       0.28200000
