data_DOCLIQ
_symmetry_space_group_name_H-M    'P1'
_symmetry_Int_Tables_number       1
loop_
_symmetry_equiv_pos_site_id
_symmetry_equiv_pos_as_xyz
1 x,y,z
_cell_length_a                   12.6802
_cell_length_b                   18.2293
_cell_length_c                   13.4082
_cell_angle_alpha                90.0
_cell_angle_beta                 96.941
_cell_angle_gamma                90.0
loop_
_atom_site_label
_atom_site_type_symbol
_atom_site_fract_x
_atom_site_fract_y
_atom_site_fract_z
     1  O          0.18032000       0.83328000       0.00922000
     2  O          0.31968000       0.33328000      -0.00922000
     3  O          0.81968000       0.16672000      -0.00922000
     4  O          0.68032000       0.66672000       0.00922000
     5  O          0.33102000       0.81978000       0.10912000
     6  O          0.16898000       0.31978000       0.89088000
     7  O          0.66898000       0.18022000       0.89088000
     8  O          0.83102000       0.68022000       0.10912000
     9  O          0.09792000       0.22652000       0.02012000
    10  O          0.40208000       0.72652000       0.97988000
    11  O          0.90208000       0.77348000       0.97988000
    12  O          0.59792000       0.27348000       0.02012000
    13  O          0.23482000       0.26491000       0.12742000
    14  O          0.26518000       0.76491000       0.87258000
    15  O          0.76518000       0.73509000       0.87258000
    16  O          0.73482000       0.23509000       0.12742000
    17  O          0.09032000       0.57389000       0.53992000
    18  O          0.40968000       0.07389000       0.46008000
    19  O          0.90968000       0.42611000       0.46008000
    20  O          0.59032000       0.92611000       0.53992000
    21  O          0.93072000       0.57149000       0.45432000
    22  O          0.56928000       0.07149000       0.54568000
    23  O          0.06928000       0.42851000       0.54568000
    24  O          0.43072000       0.92851000       0.45432000
    25  C          0.03742000       0.96589000       0.41792000
    26  C          0.46258000       0.46589000       0.58208000
    27  C          0.96258000       0.03411000       0.58208000
    28  C          0.53742000       0.53411000       0.41792000
    29  C          0.03002000       0.04261000       0.42132000
    30  C          0.46998000       0.54261000       0.57868000
    31  C          0.96998000       0.95739000       0.57868000
    32  C          0.53002000       0.45739000       0.42132000
    33  C          0.00722000       0.92309000       0.49622000
    34  C          0.49278000       0.42309000       0.50378000
    35  C         -0.00722000       0.07691000       0.50378000
    36  C          0.50722000       0.57691000       0.49622000
    37  C          0.08592000       0.93129000       0.33262000
    38  C          0.41408000       0.43129000       0.66738000
    39  C          0.91408000       0.06871000       0.66738000
    40  C          0.58592000       0.56871000       0.33262000
    41  C          0.02532000       0.90688000       0.24662000
    42  C          0.47468000       0.40688000       0.75338000
    43  C          0.97468000       0.09312000       0.75338000
    44  C          0.52532000       0.59312000       0.24662000
    45  C          0.07443000       0.87838000       0.16692000
    46  C          0.42557000       0.37838000       0.83308000
    47  C          0.92557000       0.12162000       0.83308000
    48  C          0.57443000       0.62162000       0.16692000
    49  C          0.18422000       0.87328000       0.17642000
    50  C          0.31578000       0.37328000       0.82358000
    51  C          0.81578000       0.12672000       0.82358000
    52  C          0.68422000       0.62672000       0.17642000
    53  C          0.24462000       0.89668000       0.26232000
    54  C          0.25538000       0.39668000       0.73768000
    55  C          0.75538000       0.10332000       0.73768000
    56  C          0.74462000       0.60332000       0.26232000
    57  C          0.19542000       0.92588000       0.34022000
    58  C          0.30458000       0.42588000       0.65978000
    59  C          0.80458000       0.07412000       0.65978000
    60  C          0.69542000       0.57412000       0.34022000
    61  C          0.23763000       0.84008000       0.09342000
    62  C          0.26237000       0.34008000       0.90658000
    63  C          0.76237000       0.15992000       0.90658000
    64  C          0.73763000       0.65992000       0.09342000
    65  C          0.06212000       0.08781000       0.33622000
    66  C          0.43788000       0.58781000       0.66378000
    67  C          0.93788000       0.91219000       0.66378000
    68  C          0.56212000       0.41219000       0.33622000
    69  C          0.16363000       0.11562000       0.34242000
    70  C          0.33637000       0.61562000       0.65758000
    71  C          0.83637000       0.88438000       0.65758000
    72  C          0.66363000       0.38438000       0.34242000
    73  C          0.19353000       0.15962000       0.26633000
    74  C          0.30647000       0.65962000       0.73367000
    75  C          0.80647000       0.84038000       0.73367000
    76  C          0.69353000       0.34038000       0.26633000
    77  C          0.12232000       0.17462000       0.18312000
    78  C          0.37768000       0.67462000       0.81688000
    79  C          0.87768000       0.82538000       0.81688000
    80  C          0.62232000       0.32538000       0.18312000
    81  C          0.02233000       0.14472000       0.17432000
    82  C          0.47767000       0.64472000       0.82568000
    83  C          0.97767000       0.85528000       0.82568000
    84  C          0.52233000       0.35528000       0.17432000
    85  C         -0.00808000       0.10202000       0.25222000
    86  C          0.50808000       0.60202000       0.74778000
    87  C          0.00808000       0.89798000       0.74778000
    88  C          0.49192000       0.39798000       0.25222000
    89  C          0.15513000       0.22502000       0.10512000
    90  C          0.34487000       0.72502000       0.89488000
    91  C          0.84487000       0.77498000       0.89488000
    92  C          0.65513000       0.27498000       0.10512000
    93  C          0.01102000       0.84079000       0.49172000
    94  C          0.48898000       0.34079000       0.50828000
    95  C         -0.01102000       0.15921000       0.50828000
    96  C          0.51102000       0.65921000       0.49172000
    97  C          0.92303000       0.80188000       0.45213000
    98  C          0.57697000       0.30188000       0.54787000
    99  C          0.07697000       0.19812000       0.54787000
   100  C          0.42303000       0.69812000       0.45213000
   101  C          0.92303000       0.72558000       0.45163000
   102  C          0.57697000       0.22558000       0.54837000
   103  C          0.07697000       0.27442000       0.54837000
   104  C          0.42303000       0.77442000       0.45163000
   105  C          0.01093000       0.68728000       0.49173000
   106  C          0.48907000       0.18728000       0.50827000
   107  C         -0.01093000       0.31272000       0.50827000
   108  C          0.51093000       0.81272000       0.49173000
   109  C          0.09913000       0.72558000       0.52973000
   110  C          0.40087000       0.22558000       0.47027000
   111  C          0.90087000       0.27442000       0.47027000
   112  C          0.59913000       0.77442000       0.52973000
   113  C          0.09863000       0.80178000       0.53013000
   114  C          0.40137000       0.30178000       0.46987000
   115  C          0.90137000       0.19822000       0.46987000
   116  C          0.59863000       0.69822000       0.53013000
   117  C          0.00793000       0.60558000       0.49373000
   118  C          0.49207000       0.10558000       0.50627000
   119  C         -0.00793000       0.39442000       0.50627000
   120  C          0.50793000       0.89442000       0.49373000
   121  H          0.93950000       0.91020000       0.24060000
   122  H          0.56050000       0.41020000       0.75940000
   123  H          0.06050000       0.08980000       0.75940000
   124  H          0.43950000       0.58980000       0.24060000
   125  H          0.02760000       0.86040000       0.09860000
   126  H          0.47240000       0.36040000       0.90140000
   127  H          0.97240000       0.13960000       0.90140000
   128  H          0.52760000       0.63960000       0.09860000
   129  H          0.33050000       0.89200000       0.26950000
   130  H          0.16950000       0.39200000       0.73050000
   131  H          0.66950000       0.10800000       0.73050000
   132  H          0.83050000       0.60800000       0.26950000
   133  H          0.24260000       0.94460000       0.40810000
   134  H          0.25740000       0.44460000       0.59190000
   135  H          0.75740000       0.05540000       0.59190000
   136  H          0.74260000       0.55540000       0.40810000
   137  H          0.22100000       0.80410000       0.95490000
   138  H          0.27900000       0.30410000       0.04510000
   139  H          0.77900000       0.19590000       0.04510000
   140  H          0.72100000       0.69590000       0.95490000
   141  H          0.22010000       0.10340000       0.40730000
   142  H          0.27990000       0.60340000       0.59270000
   143  H          0.77990000       0.89660000       0.59270000
   144  H          0.72010000       0.39660000       0.40730000
   145  H          0.27270000       0.18260000       0.27240000
   146  H          0.22730000       0.68260000       0.72760000
   147  H          0.72730000       0.81740000       0.72760000
   148  H          0.77270000       0.31740000       0.27240000
   149  H          0.96770000       0.15410000       0.10700000
   150  H          0.53230000       0.65410000       0.89300000
   151  H          0.03230000       0.84590000       0.89300000
   152  H          0.46770000       0.34590000       0.10700000
   153  H          0.91230000       0.07970000       0.24650000
   154  H          0.58770000       0.57970000       0.75350000
   155  H          0.08770000       0.92030000       0.75350000
   156  H          0.41230000       0.42030000       0.24650000
   157  H          0.10620000       0.26460000       0.97520000
   158  H          0.39380000       0.76460000       0.02480000
   159  H          0.89380000       0.73540000       0.02480000
   160  H          0.60620000       0.23540000       0.97520000
   161  H          0.85230000       0.83110000       0.42110000
   162  H          0.64770000       0.33110000       0.57890000
   163  H          0.14770000       0.16890000       0.57890000
   164  H          0.35230000       0.66890000       0.42110000
   165  H          0.85280000       0.69610000       0.42000000
   166  H          0.64720000       0.19610000       0.58000000
   167  H          0.14720000       0.30390000       0.58000000
   168  H          0.35280000       0.80390000       0.42000000
   169  H          0.16960000       0.69610000       0.56070000
   170  H          0.33040000       0.19610000       0.43930000
   171  H          0.83040000       0.30390000       0.43930000
   172  H          0.66960000       0.80390000       0.56070000
   173  H          0.16900000       0.83100000       0.56160000
   174  H          0.33100000       0.33100000       0.43840000
   175  H          0.83100000       0.16900000       0.43840000
   176  H          0.66900000       0.66900000       0.56160000
   177  H          0.09100000       0.51450000       0.54070000
   178  H          0.40900000       0.01450000       0.45930000
   179  H          0.90900000       0.48550000       0.45930000
   180  H          0.59100000       0.98550000       0.54070000
   181  O          0.70713000       0.86648000       0.30653000
   182  O          0.79287000       0.36648000       0.69347000
   183  O          0.29287000       0.13352000       0.69347000
   184  O          0.20713000       0.63352000       0.30653000
   185  O          0.30713000       0.10352000       0.03423000
   186  O          0.19287000       0.60352000       0.96577000
   187  O          0.69287000       0.89648000       0.96577000
   188  O          0.80713000       0.39648000       0.03423000
   189  C          0.52503000       0.00883000       0.19124000
   190  C          0.97497000       0.50883000       0.80876000
   191  C          0.47497000       0.99117000       0.80876000
   192  C          0.02503000       0.49117000       0.19124000
   193  C          0.56844000       0.93817000       0.21244000
   194  C          0.93156000       0.43817000       0.78756000
   195  C          0.43156000       0.06183000       0.78756000
   196  C          0.06844000       0.56183000       0.21244000
   197  C          0.65804000       0.93167000       0.28014000
   198  C          0.84196000       0.43167000       0.71986000
   199  C          0.34196000       0.06833000       0.71986000
   200  C          0.15804000       0.56833000       0.28014000
   201  C          0.70864000      -0.00763000       0.32934000
   202  C          0.79136000       0.49237000       0.67066000
   203  C          0.29136000       0.00763000       0.67066000
   204  C          0.20864000       0.50763000       0.32934000
   205  C          0.66644000       0.05993000       0.31054000
   206  C          0.83356000       0.55993000       0.68946000
   207  C          0.33356000       0.94007000       0.68946000
   208  C          0.16644000       0.44007000       0.31054000
   209  C          0.57374000       0.07053000       0.24134000
   210  C          0.92626000       0.57053000       0.75866000
   211  C          0.42626000       0.92947000       0.75866000
   212  C          0.07374000       0.42947000       0.24134000
   213  C          0.52954000       0.14043000       0.21965000
   214  C          0.97046000       0.64043000       0.78035000
   215  C          0.47046000       0.85957000       0.78035000
   216  C          0.02954000       0.35957000       0.21965000
   217  C          0.44294000       0.14913000       0.15015000
   218  C          0.05706000       0.64913000       0.84985000
   219  C          0.55706000       0.85087000       0.84985000
   220  C          0.94294000       0.35087000       0.15015000
   221  C          0.39524000       0.08703000       0.10104000
   222  C          0.10476000       0.58703000       0.89896000
   223  C          0.60476000       0.91297000       0.89896000
   224  C          0.89524000       0.41297000       0.10104000
   225  C          0.43384000       0.01823000       0.12034000
   226  C          0.06616000       0.51823000       0.87966000
   227  C          0.56616000       0.98177000       0.87966000
   228  C          0.93384000       0.48177000       0.12034000
   229  C          0.66458000       0.80196000       0.25757000
   230  C          0.83542000       0.30196000       0.74243000
   231  C          0.33542000       0.19804000       0.74243000
   232  C          0.16458000       0.69804000       0.25757000
   233  C          0.24686000       0.04424000      -0.01026000
   234  C          0.25314000       0.54424000       0.01026000
   235  C          0.75314000       0.95576000       0.01026000
   236  C          0.74686000       0.45576000      -0.01026000
   237  H          0.53140000       0.89020000       0.17610000
   238  H          0.96860000       0.39020000       0.82390000
   239  H          0.46860000       0.10980000       0.82390000
   240  H          0.03140000       0.60980000       0.17610000
   241  H          0.78020000       0.98530000       0.38180000
   242  H          0.71980000       0.48530000       0.61820000
   243  H          0.21980000       0.01470000       0.61820000
   244  H          0.28020000       0.51470000       0.38180000
   245  H          0.70480000       0.10680000       0.34840000
   246  H          0.79520000       0.60680000       0.65160000
   247  H          0.29520000       0.89320000       0.65160000
   248  H          0.20480000       0.39320000       0.34840000
   249  H          0.56510000       0.18810000       0.25730000
   250  H          0.93490000       0.68810000       0.74270000
   251  H          0.43490000       0.81190000       0.74270000
   252  H          0.06510000       0.31190000       0.25730000
   253  H          0.41010000       0.20270000       0.13260000
   254  H          0.08990000       0.70270000       0.86740000
   255  H          0.58990000       0.79730000       0.86740000
   256  H          0.91010000       0.29730000       0.13260000
   257  H          0.39490000       0.97100000       0.08260000
   258  H          0.10510000       0.47100000       0.91740000
   259  H          0.60510000       0.02900000       0.91740000
   260  H          0.89490000       0.52900000       0.08260000
   261  H          0.58840000       0.79260000       0.25160000
   262  H          0.91160000       0.29260000       0.74840000
   263  H          0.41160000       0.20740000       0.74840000
   264  H          0.08840000       0.70740000       0.25160000
   265  H          0.70450000       0.76560000       0.27650000
   266  H          0.79550000       0.26560000       0.72350000
   267  H          0.29550000       0.23440000       0.72350000
   268  H          0.20450000       0.73440000       0.27650000
   269  H          0.66960000       0.80560000       0.17640000
   270  H          0.83040000       0.30560000       0.82360000
   271  H          0.33040000       0.19440000       0.82360000
   272  H          0.16960000       0.69440000       0.17640000
   273  H          0.18550000       0.06030000       0.93760000
   274  H          0.31450000       0.56030000       0.06240000
   275  H          0.81450000       0.93970000       0.06240000
   276  H          0.68550000       0.43970000       0.93760000
   277  H          0.22060000       0.01240000       0.03140000
   278  H          0.27940000       0.51240000       0.96860000
   279  H          0.77940000       0.98760000       0.96860000
   280  H          0.72060000       0.48760000       0.03140000
   281  H          0.28250000       0.00830000       0.93760000
   282  H          0.21750000       0.50830000       0.06240000
   283  H          0.71750000       0.99170000       0.06240000
   284  H          0.78250000       0.49170000       0.93760000
