data_DOCWAW
_symmetry_space_group_name_H-M    'P1'
_symmetry_Int_Tables_number       1
loop_
_symmetry_equiv_pos_site_id
_symmetry_equiv_pos_as_xyz
1 x,y,z
_cell_length_a                   12.321414
_cell_length_b                   10.473512
_cell_length_c                   18.2092
_cell_angle_alpha                90.0
_cell_angle_beta                 96.4844
_cell_angle_gamma                90.0
loop_
_atom_site_label
_atom_site_type_symbol
_atom_site_fract_x
_atom_site_fract_y
_atom_site_fract_z
     1  S          0.23152700       0.06758700       0.40442500
     2  S          0.26847300       0.56758700       0.09557500
     3  S          0.76847300       0.93241300       0.59557500
     4  S          0.73152700       0.43241300       0.90442500
     5  Cl         0.33619100       0.30137120       0.71925600
     6  Cl         0.16380900       0.80137120       0.78074400
     7  Cl         0.66380900       0.69862880       0.28074400
     8  Cl         0.83619100       0.19862880       0.21925600
     9  O          0.07197180       0.62652000       0.50761120
    10  O          0.42802820       0.12652000      -0.00761120
    11  O          0.92802820       0.37348000       0.49238880
    12  O          0.57197180       0.87348000       0.00761120
    13  N          0.06792000       0.21602000       0.42534140
    14  N          0.43208000       0.71602000       0.07465860
    15  N          0.93208000       0.78398000       0.57465860
    16  N          0.56792000       0.28398000       0.92534140
    17  N          0.23762000       0.31992000       0.42823160
    18  N          0.26238000       0.81992000       0.07176840
    19  N          0.76238000       0.68008000       0.57176840
    20  N          0.73762000       0.18008000       0.92823160
    21  C          0.19702000       0.45843000       0.53175160
    22  C          0.30298000       0.95843000       0.96824840
    23  C          0.80298000       0.54157000       0.46824840
    24  C          0.69702000       0.04157000       0.03175160
    25  C          0.13042000       0.55203000       0.55856170
    26  C          0.36958000       0.05203000       0.94143830
    27  C          0.86958000       0.44797000       0.44143830
    28  C          0.63042000       0.94797000       0.05856170
    29  C          0.19752000       0.44453000       0.44885170
    30  C          0.30248000       0.94453000       0.05114830
    31  C          0.80248000       0.55547000       0.55114830
    32  C          0.69752000       0.05547000       0.94885170
    33  H          0.12170000       0.45180000       0.42630000
    34  H          0.37830000       0.95180000       0.07370000
    35  H          0.87830000       0.54820000       0.57370000
    36  H          0.62170000       0.04820000       0.92630000
    37  C          0.26273000       0.54823000       0.41516160
    38  C          0.23727000       0.04823000       0.08483840
    39  C          0.73727000       0.45177000       0.58483840
    40  C          0.76273000       0.95177000       0.91516160
    41  C          0.02523000       0.09353000       0.41261160
    42  C          0.47477000       0.59353000       0.08738840
    43  C          0.97477000       0.90647000       0.58738840
    44  C          0.52523000       0.40647000       0.91261160
    45  C          0.17272000       0.21683000       0.42123160
    46  C          0.32728000       0.71683000       0.07876840
    47  C          0.82728000       0.78317000       0.57876840
    48  C          0.67272000       0.28317000       0.92123160
    49  C          0.10213000      -0.00033000       0.40074170
    50  C          0.39787000       0.49967000       0.09925830
    51  C          0.89787000       0.00033000       0.59925830
    52  C          0.60213000       0.50033000       0.90074170
    53  C          0.26022000       0.38163000       0.58225180
    54  C          0.23978000       0.88163000       0.91774820
    55  C          0.73978000       0.61837000       0.41774820
    56  C          0.76022000       0.11837000       0.08225180
    57  H          0.30520000       0.31920000       0.56560000
    58  H          0.19480000       0.81920000       0.93440000
    59  H          0.69480000       0.68080000       0.43440000
    60  H          0.80520000       0.18080000       0.06560000
    61  C          0.12663000       0.56633000       0.63397180
    62  C          0.37337000       0.06633000       0.86602820
    63  C          0.87337000       0.43367000       0.36602820
    64  C          0.62663000       0.93367000       0.13397180
    65  H          0.08120000       0.62770000       0.65130000
    66  H          0.41880000       0.12770000       0.84870000
    67  H          0.91880000       0.37230000       0.34870000
    68  H          0.58120000       0.87230000       0.15130000
    69  C          0.18993000       0.48963000       0.68332190
    70  C          0.31007000      -0.01037000       0.81667810
    71  C          0.81007000       0.51037000       0.31667810
    72  C          0.68993000       0.01037000       0.18332190
    73  H          0.18800000       0.49960000       0.73390000
    74  H          0.31200000      -0.00040000       0.76610000
    75  H          0.81200000       0.50040000       0.26610000
    76  H          0.68800000       0.00040000       0.23390000
    77  C          0.91587000       0.06023000       0.41232000
    78  C          0.58413000       0.56023000       0.08768000
    79  C          0.08413000       0.93977000       0.58768000
    80  C          0.41587000       0.43977000       0.91232000
    81  H          0.86380000       0.12160000       0.42000000
    82  H          0.63620000       0.62160000       0.08000000
    83  H          0.13620000       0.87840000       0.58000000
    84  H          0.36380000       0.37840000       0.92000000
    85  C          0.25623000       0.39813000       0.65699190
    86  C          0.24377000       0.89813000       0.84300810
    87  C          0.74377000       0.60187000       0.34300810
    88  C          0.75623000       0.10187000       0.15699190
    89  C          0.34873000       0.60994000       0.45562000
    90  C          0.15127000       0.10994000       0.04438000
    91  C          0.65127000       0.39006000       0.54438000
    92  C          0.84873000       0.89006000       0.95562000
    93  H          0.36840000       0.58700000       0.50460000
    94  H          0.13160000       0.08700000      -0.00460000
    95  H          0.63160000       0.41300000       0.49540000
    96  H          0.86840000       0.91300000       0.00460000
    97  N          0.43654000       0.84124000       0.31933000
    98  N          0.06346000       0.34124000       0.18067000
    99  N          0.56346000       0.15876000       0.68067000
   100  N          0.93654000       0.65876000       0.81933000
   101  O          0.41934000       0.85855000       0.25343000
   102  O          0.08066000       0.35855000       0.24657000
   103  O          0.58066000       0.14145000       0.74657000
   104  O          0.91934000       0.64145000       0.75343000
   105  C          0.07173000       0.87277000       0.39052000
   106  C          0.42827000       0.37277000       0.10948000
   107  C          0.92827000       0.12723000       0.60948000
   108  C          0.57173000       0.62723000       0.89052000
   109  H          0.12340000       0.81040000       0.38380000
   110  H          0.37660000       0.31040000       0.11620000
   111  H          0.87660000       0.18960000       0.61620000
   112  H          0.62340000       0.68960000       0.88380000
   113  C          0.88587000       0.93346000       0.40022000
   114  C          0.61413000       0.43346000       0.09978000
   115  C          0.11413000       0.06654000       0.59978000
   116  C          0.38587000       0.56654000       0.90022000
   117  H          0.81280000       0.91040000       0.39880000
   118  H          0.68720000       0.41040000       0.10120000
   119  H          0.18720000       0.08960000       0.60120000
   120  H          0.31280000       0.58960000       0.89880000
   121  C          0.23593000       0.58274000       0.34192000
   122  C          0.26407000       0.08274000       0.15808000
   123  C          0.76407000       0.41726000       0.65808000
   124  C          0.73593000       0.91726000       0.84192000
   125  H          0.17840000       0.54180000       0.31390000
   126  H          0.32160000       0.04180000       0.18610000
   127  H          0.82160000       0.45820000       0.68610000
   128  H          0.67840000       0.95820000       0.81390000
   129  O          0.50385000       0.90214000       0.36044000
   130  O         -0.00385000       0.40214000       0.13956000
   131  O          0.49615000       0.09786000       0.63956000
   132  O          0.00385000       0.59786000       0.86044000
   133  C          0.96296000       0.84137000       0.39032000
   134  C          0.53704000       0.34137000       0.10968000
   135  C          0.03704000       0.15863000       0.60968000
   136  C          0.46296000       0.65863000       0.89032000
   137  H          0.94120000       0.75680000       0.38350000
   138  H          0.55880000       0.25680000       0.11650000
   139  H          0.05880000       0.24320000       0.61650000
   140  H          0.44120000       0.74320000       0.88350000
   141  C          0.37734000       0.73754000       0.35262000
   142  C          0.12266000       0.23754000       0.14738000
   143  C          0.62266000       0.26246000       0.64738000
   144  C          0.87734000       0.76246000       0.85262000
   145  C          0.40604000       0.70524000       0.42442000
   146  C          0.09396000       0.20524000       0.07558000
   147  C          0.59396000       0.29476000       0.57558000
   148  C          0.90604000       0.79476000       0.92442000
   149  H          0.46350000       0.74670000       0.45220000
   150  H          0.03650000       0.24670000       0.04780000
   151  H          0.53650000       0.25330000       0.54780000
   152  H          0.96350000       0.75330000       0.95220000
   153  C          0.29324000       0.67654000       0.31022000
   154  C          0.20676000       0.17654000       0.18978000
   155  C          0.70676000       0.32346000       0.68978000
   156  C          0.79324000       0.82346000       0.81022000
   157  H          0.27540000       0.69850000       0.26080000
   158  H          0.22460000       0.19850000       0.23920000
   159  H          0.72460000       0.30150000       0.73920000
   160  H          0.77540000       0.80150000       0.76080000
   161  H          0.30130000       0.31130000       0.42520000
   162  H          0.19870000       0.81130000       0.07480000
   163  H          0.69870000       0.68870000       0.57480000
   164  H          0.80130000       0.18870000       0.92520000
   165  H          0.02740000       0.67150000       0.52430000
   166  H          0.47260000       0.17150000       0.97570000
   167  H          0.97260000       0.32850000       0.47570000
   168  H          0.52740000       0.82850000       0.02430000
   169  S          0.48689130       0.24602000       0.33734110
   170  S          0.01310870       0.74602000       0.16265890
   171  S          0.51310870       0.75398000       0.66265890
   172  S          0.98689130       0.25398000       0.83734110
   173  O          0.45223000       0.26494000       0.41262000
   174  O          0.04777000       0.76494000       0.08738000
   175  O          0.54777000       0.73506000       0.58738000
   176  O          0.95223000       0.23506000       0.91262000
   177  C          0.51128000       0.40679000       0.30685000
   178  C         -0.01128000       0.90679000       0.19315000
   179  C          0.48872000       0.59321000       0.69315000
   180  C          0.01128000       0.09321000       0.80685000
   181  H          0.44300000       0.44530000       0.28800000
   182  H          0.05700000       0.94530000       0.21200000
   183  H          0.55700000       0.55470000       0.71200000
   184  H          0.94300000       0.05470000       0.78800000
   185  H          0.55860000       0.40410000       0.26840000
   186  H          0.94140000       0.90410000       0.23160000
   187  H          0.44140000       0.59590000       0.73160000
   188  H          0.05860000       0.09590000       0.76840000
   189  H          0.54490000       0.45590000       0.34760000
   190  H          0.95510000       0.95590000       0.15240000
   191  H          0.45510000       0.54410000       0.65240000
   192  H          0.04490000       0.04410000       0.84760000
   193  C          0.62436000       0.19359000       0.35797000
   194  C          0.87564000       0.69359000       0.14203000
   195  C          0.37564000       0.80641000       0.64203000
   196  C          0.12436000       0.30641000       0.85797000
   197  H          0.66290000       0.25100000       0.39260000
   198  H          0.83710000       0.75100000       0.10740000
   199  H          0.33710000       0.74900000       0.60740000
   200  H          0.16290000       0.24900000       0.89260000
   201  H          0.65910000       0.19190000       0.31330000
   202  H          0.84090000       0.69190000       0.18670000
   203  H          0.34090000       0.80810000       0.68670000
   204  H          0.15910000       0.30810000       0.81330000
   205  H          0.62500000       0.10930000       0.37880000
   206  H          0.87500000       0.60930000       0.12120000
   207  H          0.37500000       0.89070000       0.62120000
   208  H          0.12500000       0.39070000       0.87880000
