data_DOFNOF
_symmetry_space_group_name_H-M    'P1'
_symmetry_Int_Tables_number       1
loop_
_symmetry_equiv_pos_site_id
_symmetry_equiv_pos_as_xyz
1 x,y,z
_cell_length_a                   6.44192
_cell_length_b                   8.35873
_cell_length_c                   8.68773
_cell_angle_alpha                67.927913
_cell_angle_beta                 68.790911
_cell_angle_gamma                81.076113
loop_
_atom_site_label
_atom_site_type_symbol
_atom_site_fract_x
_atom_site_fract_y
_atom_site_fract_z
     1  O          0.42096120       0.61892100       0.26321900
     2  O          0.57903880       0.38107900       0.73678100
     3  N          0.46073140       0.56170110       0.13429110
     4  N          0.53926860       0.43829890       0.86570890
     5  C          0.60892170       0.42974130       0.11819130
     6  C          0.39107830       0.57025870       0.88180870
     7  C          0.35292170       0.63214130       0.01526140
     8  C          0.64707830       0.36785870      -0.01526140
     9  H          0.25530000       0.72420000       0.02720000
    10  H          0.74470000       0.27580000       0.97280000
    11  H          0.68230000       0.38720000       0.20120000
    12  H          0.31770000       0.61280000       0.79880000
    13  O          0.97557850       0.39680100       0.36281110
    14  O          0.02442150       0.60319900       0.63718890
    15  O          0.79641870       0.15638110       0.48936100
    16  O          0.20358130       0.84361890       0.51063900
    17  O          0.67015870       0.95739890       0.84560110
    18  O          0.32984130       0.04260110       0.15439890
    19  O          0.92139870       0.76739900       0.91705100
    20  O          0.07860130       0.23260100       0.08294900
    21  N          0.18348140       0.03612110       0.82071110
    22  N          0.81651860       0.96387890       0.17928890
    23  N          0.30445150       0.17886120       0.71451110
    24  N          0.69554850       0.82113880       0.28548890
    25  N          0.93175850       0.25309110       0.47726110
    26  N          0.06824150       0.74690890       0.52273890
    27  N          0.86137860       0.91422890       0.84285110
    28  N          0.13862140       0.08577110       0.15714890
    29  C          0.23237170       0.27788130       0.58153130
    30  C          0.76762830       0.72211870       0.41846870
    31  C          0.05021160       0.19571130       0.59994130
    32  C          0.94978840       0.80428870       0.40005870
    33  C          0.02846160       0.04671120       0.75065130
    34  C          0.97153840       0.95328880       0.24934870
    35  H          0.29930000       0.38120000       0.49820000
    36  H          0.70070000       0.61880000       0.50180000
    37  H          0.41030000       0.20920000       0.73820000
    38  H          0.58970000       0.79080000       0.26180000
