data_DOGDAF
_symmetry_space_group_name_H-M    'P1'
_symmetry_Int_Tables_number       1
loop_
_symmetry_equiv_pos_site_id
_symmetry_equiv_pos_as_xyz
1 x,y,z
_cell_length_a                   9.03458
_cell_length_b                   15.864415
_cell_length_c                   17.146616
_cell_angle_alpha                86.7762
_cell_angle_beta                 76.9612
_cell_angle_gamma                83.1282
loop_
_atom_site_label
_atom_site_type_symbol
_atom_site_fract_x
_atom_site_fract_y
_atom_site_fract_z
     1  C          0.27283000       0.71242160      -0.00141150
     2  C          0.72717000       0.28757840       0.00141150
     3  H          0.28091400       0.67778000       0.95373000
     4  H          0.71908600       0.32222000       0.04627000
     5  B          0.23853000       0.66201180       0.09156170
     6  B          0.76147000       0.33798820       0.90843830
     7  B          0.09433000       0.73382180       0.05937170
     8  B          0.90567000       0.26617820       0.94062830
     9  B          0.18753000       0.81432180      -0.00525170
    10  B          0.81247000       0.18567820       0.00525170
    11  B          0.39003000       0.79187180       0.98718830
    12  B          0.60997000       0.20812820       0.01281170
    13  B          0.42173000       0.69769180       0.04715170
    14  B          0.57827000       0.30230820       0.95284830
    15  B          0.33333000       0.71922180       0.14847170
    16  B          0.66667000       0.28077820       0.85152830
    17  B          0.13143000       0.74256180       0.15641170
    18  B          0.86857000       0.25743820       0.84358830
    19  B          0.10073000       0.83548180       0.09633170
    20  B          0.89927000       0.16451820       0.90366830
    21  B          0.28143000       0.87280170       0.05141170
    22  B          0.71857000       0.12719830       0.94858830
    23  B          0.42503000       0.79984180       0.08399170
    24  B          0.57497000       0.20015820       0.91600830
    25  B          0.24743000       0.82689180       0.15081170
    26  B          0.75257000       0.17310820       0.84918830
    27  Cl         0.21814700       0.55313400       0.10539400
    28  Cl         0.78185300       0.44686600       0.89460600
    29  Cl         0.93170300       0.69558400       0.04047400
    30  Cl         0.06829700       0.30441600       0.95952600
    31  Cl         0.11170700       0.85798400       0.91314600
    32  Cl         0.88829300       0.14201600       0.08685400
    33  Cl         0.52247700       0.80806400       0.89627600
    34  Cl         0.47752300       0.19193600       0.10372400
    35  Cl         0.58215700       0.62330400       0.01595400
    36  Cl         0.41784300       0.37669600       0.98404600
    37  Cl         0.40924700       0.66791400       0.22785400
    38  Cl         0.59075300       0.33208600       0.77214600
    39  Cl        -0.00106700       0.71816400       0.24635400
    40  Cl         0.00106700       0.28183600       0.75364600
    41  Cl         0.93303300       0.91057400       0.12209400
    42  Cl         0.06696700       0.08942600       0.87790600
    43  Cl         0.30031700       0.98228400       0.03216400
    44  Cl         0.69968300       0.01771600       0.96783600
    45  Cl         0.59676700       0.83553400       0.09970400
    46  Cl         0.40323300       0.16446600       0.90029600
    47  Cl         0.23164700       0.89243400       0.23456400
    48  Cl         0.76835300       0.10756600       0.76543600
    49  C          0.14803000       0.65889160       0.64490150
    50  C          0.85197000       0.34110840       0.35509850
    51  H          0.19531400       0.61087000       0.66977000
    52  H          0.80468600       0.38913000       0.33023000
    53  B          0.26193000       0.71369180       0.57064170
    54  B          0.73807000       0.28630820       0.42935830
    55  B          0.18373000       0.75666180       0.66771170
    56  B          0.81627000       0.24333820       0.33228830
    57  B         -0.00013000       0.71945180       0.70598170
    58  B          0.00013000       0.28054820       0.29401830
    59  B          0.96707000       0.65337180       0.63192170
    60  B          0.03293000       0.34662820       0.36807830
    61  B          0.12793000       0.65006190       0.54849170
    62  B          0.87207000       0.34993810       0.45150830
    63  B          0.14013000       0.75440190       0.50631170
    64  B          0.85987000       0.24559810       0.49368830
    65  B          0.17513000       0.82020180       0.58033170
    66  B          0.82487000       0.17979820       0.41966830
    67  B          0.01403000       0.82418190       0.66320180
    68  B          0.98597000       0.17581810       0.33679820
    69  B          0.87937000       0.75964190       0.64112170
    70  B          0.12063000       0.24035810       0.35887830
    71  B          0.95777000       0.71619190       0.54361170
    72  B          0.04223000       0.28380810       0.45638830
    73  B          0.98587000       0.82230190       0.56325180
    74  B          0.01413000       0.17769810       0.43674820
    75  Cl         0.46072700       0.68545400       0.53909400
    76  Cl         0.53927300       0.31454600       0.46090600
    77  Cl         0.30495700       0.76890400       0.73288400
    78  Cl         0.69504300       0.23109600       0.26711600
    79  Cl         0.93961300       0.69439400       0.80865400
    80  Cl         0.06038700       0.30560600       0.19134600
    81  Cl         0.87481300       0.56097400       0.66273400
    82  Cl         0.12518700       0.43902600       0.33726600
    83  Cl         0.19264700       0.55558400       0.49492400
    84  Cl         0.80735300       0.44441600       0.50507600
    85  Cl         0.21289800       0.77352500       0.40258400
    86  Cl         0.78710200       0.22647500       0.59741600
    87  Cl         0.29052700       0.90620400       0.55260400
    88  Cl         0.70947300       0.09379600       0.44739600
    89  Cl         0.95519200       0.91526400       0.72361400
    90  Cl         0.04480800       0.08473600       0.27638600
    91  Cl         0.67885300       0.78448400       0.67717400
    92  Cl         0.32114700       0.21551600       0.32282600
    93  Cl         0.84182300       0.69599500       0.47674400
    94  Cl         0.15817700       0.30400500       0.52325600
    95  Cl         0.89484200       0.91211400       0.51840400
    96  Cl         0.10515800       0.08788600       0.48159600
    97  N          0.33432000       0.11707140       0.71811130
    98  N          0.66568000       0.88292860       0.28188870
    99  H          0.28230000       0.12481800       0.76641700
   100  H          0.71770000       0.87518200       0.23358300
   101  C          0.39213000       0.19939170       0.68392180
   102  C          0.60787000       0.80060830       0.31607820
   103  H          0.46560000       0.21490000       0.71340000
   104  H          0.53440000       0.78510000       0.28660000
   105  H          0.30610000       0.24420000       0.68880000
   106  H          0.69390000       0.75580000       0.31120000
   107  H          0.44240000       0.19280000       0.62730000
   108  H          0.55760000       0.80720000       0.37270000
   109  C          0.23383000       0.08559190       0.67003180
   110  C          0.76617000       0.91440810       0.32996820
   111  H          0.20160000       0.03090000       0.69280000
   112  H          0.79840000       0.96910000       0.30720000
   113  H          0.29060000       0.07840000       0.61450000
   114  H          0.70940000       0.92160000       0.38550000
   115  H          0.14350000       0.12690000       0.67130000
   116  H          0.85650000       0.87310000       0.32870000
   117  N          0.46473000       0.05355140       0.72928130
   118  N          0.53527000       0.94644860       0.27071870
   119  H          0.52530000       0.08121900       0.75351700
   120  H          0.47470000       0.91878100       0.24648300
   121  C          0.56463000       0.02246190       0.65168160
   122  C          0.43537000       0.97753810       0.34831840
   123  H          0.59470000       0.07120000       0.61640000
   124  H          0.40530000       0.92880000       0.38360000
   125  H          0.50810000       0.98770000       0.62570000
   126  H          0.49190000       0.01230000       0.37430000
   127  H          0.65610000       0.98830000       0.66220000
   128  H          0.34390000       0.01170000       0.33780000
   129  C          0.41303000       0.98072820       0.78502180
   130  C          0.58697000       0.01927180       0.21497820
   131  H          0.35080000       0.00300000       0.83560000
   132  H          0.64920000      -0.00300000       0.16440000
   133  H          0.50260000       0.94440000       0.79540000
   134  H          0.49740000       0.05560000       0.20460000
   135  H          0.35210000       0.94750000       0.76030000
   136  H          0.64790000       0.05250000       0.23970000
   137  C          0.40103000       0.53735160       0.77067160
   138  C          0.59897000       0.46264840       0.22932840
   139  C          0.26033000       0.51057160       0.80604150
   140  C          0.73967000       0.48942840       0.19395850
   141  C          0.18783000       0.46321170       0.76284160
   142  C          0.81217000       0.53678830       0.23715840
   143  H          0.09080000       0.44520000       0.78680000
   144  H          0.90920000       0.55480000       0.21320000
   145  C          0.25803000       0.44262170       0.68483170
   146  C          0.74197000       0.55737830       0.31516830
   147  H          0.20940000       0.40980000       0.65540000
   148  H          0.79060000       0.59020000       0.34460000
   149  C          0.39903000       0.46960170       0.64927160
   150  C          0.60097000       0.53039830       0.35072840
   151  H          0.44650000       0.45550000       0.59560000
   152  H          0.55350000       0.54450000       0.40440000
   153  C          0.47023000       0.51732170       0.69233160
   154  C          0.52977000       0.48267830       0.30766840
   155  H          0.56640000       0.53620000       0.66810000
   156  H          0.43360000       0.46380000       0.33190000
   157  Cl         0.49512800       0.59471400       0.82366400
   158  Cl         0.50487200       0.40528600       0.17633600
   159  Cl         0.17035800       0.53491400       0.90380400
   160  Cl         0.82964200       0.46508600       0.09619600
