data_DOHCAG
_symmetry_space_group_name_H-M    'P1'
_symmetry_Int_Tables_number       1
loop_
_symmetry_equiv_pos_site_id
_symmetry_equiv_pos_as_xyz
1 x,y,z
_cell_length_a                   10.77893
_cell_length_b                   11.10703
_cell_length_c                   21.13275
_cell_angle_alpha                81.97801
_cell_angle_beta                 88.55101
_cell_angle_gamma                67.13801
loop_
_atom_site_label
_atom_site_type_symbol
_atom_site_fract_x
_atom_site_fract_y
_atom_site_fract_z
     1  N          0.59682000       0.01830190       0.60743100
     2  N          0.40318000       0.98169810       0.39256900
     3  N          0.45532000       0.42904190       0.30798900
     4  N          0.54468000       0.57095810       0.69201100
     5  C          0.60803000       0.09732000       0.54555890
     6  C          0.39197000       0.90268000       0.45444110
     7  H          0.53540000       0.10690000       0.51510000
     8  H          0.46460000       0.89310000       0.48490000
     9  H          0.69570000       0.05140000       0.52640000
    10  H          0.30430000       0.94860000       0.47360000
    11  C          0.47402000       0.03952000       0.63109890
    12  C          0.52598000       0.96048000       0.36890110
    13  H          0.39580000       0.09730000       0.60640000
    14  H          0.60420000       0.90270000       0.39360000
    15  C          0.46072000       0.97862000       0.69038890
    16  C          0.53928000       0.02138000       0.30961110
    17  H          0.37330000      -0.00460000       0.70650000
    18  H          0.62670000       0.00460000       0.29350000
    19  C          0.57432000       0.89202000       0.72749890
    20  C          0.42568000       0.10798000       0.27250110
    21  C          0.70002000       0.86842000       0.70010890
    22  C          0.29998000       0.13158000       0.29989110
    23  H          0.77960000       0.80740000       0.72270000
    24  H          0.22040000       0.19260000       0.27730000
    25  C          0.70873000       0.93292000       0.64067890
    26  C          0.29127000       0.06708000       0.35932110
    27  H          0.79450000       0.91700000       0.62290000
    28  H          0.20550000       0.08300000       0.37710000
    29  C          0.56132000       0.83172000       0.79296890
    30  C          0.43868000       0.16828000       0.20703110
    31  C          0.43782000       0.82942000       0.81415890
    32  C          0.56218000       0.17058000       0.18584110
    33  H          0.36190000       0.86350000       0.78540000
    34  H          0.63810000       0.13650000       0.21460000
    35  C          0.42502000       0.77832000       0.87620890
    36  C          0.57498000       0.22168000       0.12379110
    37  H          0.34050000       0.77710000       0.88920000
    38  H          0.65950000       0.22290000       0.11080000
    39  C          0.53372000       0.72822000       0.92040890
    40  C          0.46628000       0.27178000       0.07959110
    41  C          0.65742000       0.73012000       0.89903890
    42  C          0.34258000       0.26988000       0.10096110
    43  H          0.73310000       0.69690000       0.92790000
    44  H          0.26690000       0.30310000       0.07210000
    45  C          0.67082000       0.77942000       0.83669890
    46  C          0.32918000       0.22058000       0.16330110
    47  H          0.75620000       0.77770000       0.82320000
    48  H          0.24380000       0.22230000       0.17680000
    49  C          0.51952000       0.67312000       0.98689890
    50  C          0.48048000       0.32688000       0.01310110
    51  C          0.39402000       0.71202000       0.01595110
    52  C          0.60598000       0.28798000       0.98404890
    53  H          0.31700000       0.77670000       0.99280000
    54  H          0.68300000       0.22330000       0.00720000
    55  C          0.38012000       0.65842000       0.07741110
    56  C          0.61988000       0.34158000       0.92258890
    57  H          0.29370000       0.68470000       0.09550000
    58  H          0.70630000       0.31530000       0.90450000
    59  C          0.49222000       0.56562000       0.11318110
    60  C          0.50778000       0.43438000       0.88681890
    61  C          0.61752000       0.52682000       0.08452110
    62  C          0.38248000       0.47318000       0.91547890
    63  H          0.69490000       0.46360000       0.10790000
    64  H          0.30510000       0.53640000       0.89210000
    65  C          0.63042000       0.57922000       0.02263110
    66  C          0.36958000       0.42078000       0.97736890
    67  H          0.71650000       0.55060000       0.00410000
    68  H          0.28350000       0.44940000      -0.00410000
    69  C          0.48032000       0.51222000       0.18002110
    70  C          0.51968000       0.48778000       0.81997890
    71  C          0.35842000       0.50982000       0.20371110
    72  C          0.64158000       0.49018000       0.79628890
    73  H          0.28240000       0.53600000       0.17550000
    74  H          0.71760000       0.46400000       0.82450000
    75  C          0.34812000       0.46982000       0.26723110
    76  C          0.65188000       0.53018000       0.73276890
    77  H          0.26430000       0.47070000       0.28280000
    78  H          0.73570000       0.52930000       0.71720000
    79  C          0.57642000       0.42432000       0.28648110
    80  C          0.42358000       0.57568000       0.71351890
    81  H          0.65200000       0.39270000       0.31530000
    82  H          0.34800000       0.60730000       0.68470000
    83  C          0.59042000       0.46482000       0.22334110
    84  C          0.40958000       0.53518000       0.77665890
    85  H          0.67590000       0.46060000       0.20880000
    86  H          0.32410000       0.53940000       0.79120000
    87  C          0.43803000       0.40592000       0.37888110
    88  C          0.56197000       0.59408000       0.62111890
    89  H          0.51670000       0.32950000       0.39900000
    90  H          0.48330000       0.67050000       0.60100000
    91  H          0.35620000       0.38690000       0.38760000
    92  H          0.64380000       0.61310000       0.61240000
    93  C          0.42512000       0.52882000       0.40591100
    94  C          0.57488000       0.47118000       0.59408900
    95  C          0.29932000       0.62933000       0.40914110
    96  C          0.70068000       0.37067000       0.59085890
    97  H          0.22040000       0.61640000       0.39890000
    98  H          0.77960000       0.38360000       0.60110000
    99  C          0.28792000       0.74882000       0.42724110
   100  C          0.71208000       0.25118000       0.57275890
   101  H          0.20150000       0.81690000       0.42960000
   102  H          0.79850000       0.18310000       0.57040000
   103  C          0.40332000       0.76872000       0.44193100
   104  C          0.59668000       0.23128000       0.55806900
   105  C          0.52872000       0.66532000       0.44128110
   106  C          0.47128000       0.33468000       0.55871890
   107  H          0.60750000       0.67660000       0.45320000
   108  H          0.39250000       0.32340000       0.54680000
   109  C          0.53952000       0.54652000       0.42341110
   110  C          0.46048000       0.45348000       0.57658890
   111  H          0.62550000       0.47670000       0.42310000
   112  H          0.37450000       0.52330000       0.57690000
   113  C          0.93383000       0.19114000       0.17458180
   114  C          0.06617000       0.80886000       0.82541820
   115  H          0.92230000       0.15610000       0.21690000
   116  H          0.07770000       0.84390000       0.78310000
   117  C          0.92933000       0.12104000       0.11942000
   118  C          0.07067000       0.87896000       0.88058000
   119  H          0.91380000       0.04170000       0.12760000
   120  H          0.08620000       0.95830000       0.87240000
   121  C          0.94623000       0.16614000       0.05921170
   122  C          0.05377000       0.83386000       0.94078830
   123  H          0.94590000       0.11870000       0.02510000
   124  H          0.05410000       0.88130000       0.97490000
   125  C          0.96543000       0.29143000       0.04728150
   126  C          0.03457000       0.70857000       0.95271850
   127  C          0.97033000       0.35833000       0.10059150
   128  C          0.02967000       0.64167000       0.89940850
   129  C          0.95353000       0.29934000       0.16371170
   130  C          0.04647000       0.70066000       0.83628830
   131  H          0.95720000       0.34230000       0.19900000
   132  H          0.04280000       0.65770000       0.80100000
   133  C          0.97803000       0.34733000       0.98601850
   134  C          0.02197000       0.65267000       0.01398150
   135  H          0.97350000       0.30370000       0.95110000
   136  H          0.02650000       0.69630000       0.04890000
   137  C         -0.00267000       0.46633000       0.97352860
   138  C          0.00267000       0.53367000       0.02647140
   139  C          0.01073000       0.52343000       0.91223860
   140  C          0.98927000       0.47657000       0.08776140
   141  H          0.00680000       0.47960000       0.87730000
   142  H         -0.00680000       0.52040000       0.12270000
   143  Cl         0.39730700       0.78548600       0.27022300
   144  Cl         0.60269300       0.21451400       0.72977700
   145  Cl         0.25334600       0.95906600       0.13971300
   146  Cl         0.74665400       0.04093400       0.86028700
   147  Cl         0.73424700       0.90626800       0.04508300
   148  Cl         0.26575300       0.09373200       0.95491700
   149  C          0.48983000       0.81832000       0.20666120
   150  C          0.51017000       0.18168000       0.79333880
   151  C          0.42652000       0.89442000       0.15007120
   152  C          0.57348000       0.10558000       0.84992880
   153  C          0.50223000       0.92092000       0.09982120
   154  C          0.49777000       0.07908000       0.90017880
   155  H          0.45960000       0.97260000       0.06080000
   156  H          0.54040000       0.02740000       0.93920000
   157  C          0.64063000       0.87043000       0.10793120
   158  C          0.35937000       0.12957000       0.89206880
   159  C          0.70583000       0.79373000       0.16368130
   160  C          0.29417000       0.20627000       0.83631870
   161  H          0.80130000       0.75910000       0.16790000
   162  H          0.19870000       0.24090000       0.83210000
   163  C          0.62863000       0.76803000       0.21352130
   164  C          0.37137000       0.23197000       0.78647870
   165  H          0.67150000       0.71570000       0.25240000
   166  H          0.32850000       0.28430000       0.74760000
   167  P          0.16541600       0.91530600       0.61275700
   168  P          0.83458400       0.08469400       0.38724300
   169  F          0.01244150       0.95150170       0.63209200
   170  F          0.98755850       0.04849830       0.36790800
   171  F          0.11990160       0.96451170       0.53931300
   172  F          0.88009840       0.03548830       0.46068700
   173  F          0.32013140       0.87984150       0.59387300
   174  F          0.67986860       0.12015850       0.40612700
   175  F          0.21342160       0.86685150       0.68678300
   176  F          0.78657840       0.13314850       0.31321700
   177  F          0.18257160       0.76922150       0.60457200
   178  F          0.81742840       0.23077850       0.39542800
   179  F          0.15333160       0.06059150       0.62170300
   180  F          0.84666840       0.93940850       0.37829700
   181  P          0.95989700       0.49835700       0.32552300
   182  P          0.04010300       0.50164300       0.67447700
   183  F          0.87343170       0.52167180       0.38782900
   184  F          0.12656830       0.47832820       0.61217100
   185  F          0.89602000       0.65182000       0.29993110
   186  F          0.10398000       0.34818000       0.70006890
   187  F          0.05002000       0.47322000       0.26246800
   188  F          0.94998000       0.52678000       0.73753200
   189  F          0.02721160       0.34476170       0.34990900
   190  F          0.97278840       0.65523830       0.65009100
   191  F          0.84205170       0.47887180       0.28961900
   192  F          0.15794830       0.52112820       0.71038100
   193  F          0.07922170       0.51858190       0.36089800
   194  F          0.92077830       0.48141810       0.63910200
   195  N          0.72322000       0.78692000       0.51863110
   196  N          0.27678000       0.21308000       0.48136890
   197  C          0.83513000       0.74993000       0.50701120
   198  C          0.16487000       0.25007000       0.49298880
   199  C          0.97723000       0.70473000       0.49210140
   200  C          0.02277000       0.29527000       0.50789860
   201  H          0.98690000       0.70400000       0.44590000
   202  H          0.01310000       0.29600000       0.55410000
   203  H          0.02530000       0.61540000       0.51460000
   204  H          0.97470000       0.38460000       0.48540000
   205  H          0.01510000       0.76450000       0.50580000
   206  H          0.98490000       0.23550000       0.49420000
   207  N          0.05803000       0.75163000       0.15826130
   208  N          0.94197000       0.24837000       0.84173870
   209  C          0.05103000       0.79133000       0.20573150
   210  C          0.94897000       0.20867000       0.79426850
   211  C          0.04164000       0.84183000       0.26626160
   212  C          0.95836000       0.15817000       0.73373840
   213  H          0.09180000       0.89910000       0.26450000
   214  H          0.90820000       0.10090000       0.73550000
   215  H          0.07970000       0.76790000       0.30080000
   216  H          0.92030000       0.23210000       0.69920000
   217  H          0.94690000       0.89240000       0.27440000
   218  H          0.05310000       0.10760000       0.72560000
