data_DOKGEQ
_symmetry_space_group_name_H-M    'P1'
_symmetry_Int_Tables_number       1
loop_
_symmetry_equiv_pos_site_id
_symmetry_equiv_pos_as_xyz
1 x,y,z
_cell_length_a                   7.51105
_cell_length_b                   8.01997
_cell_length_c                   11.811111
_cell_angle_alpha                109.7108
_cell_angle_beta                 93.4717
_cell_angle_gamma                99.1006
loop_
_atom_site_label
_atom_site_type_symbol
_atom_site_fract_x
_atom_site_fract_y
_atom_site_fract_z
     1  N          0.96103180       0.22452000       0.54729140
     2  N          0.03896820       0.77548000       0.45270860
     3  C          0.85792000       0.18033000       0.44228160
     4  C          0.14208000       0.81967000       0.55771840
     5  H          0.90930000       0.20950000       0.38010000
     6  H          0.09070000       0.79050000       0.61990000
     7  C          0.67852000       0.09342000       0.42035150
     8  C          0.32148000       0.90658000       0.57964850
     9  H          0.61280000       0.06580000       0.34500000
    10  H          0.38720000       0.93420000       0.65500000
    11  C          0.59615190       0.04732000       0.51012130
    12  C          0.40384810       0.95268000       0.48987870
    13  C          0.70322000       0.09633000       0.62004170
    14  C          0.29678000       0.90367000       0.37995830
    15  H          0.65510000       0.07060000       0.68430000
    16  H          0.34490000       0.92940000       0.31570000
    17  C          0.88122000       0.18333000       0.63410180
    18  C          0.11878000       0.81667000       0.36589820
    19  H          0.94950000       0.21510000       0.70910000
    20  H          0.05050000       0.78490000       0.29090000
    21  N          0.94659180       0.26092000       0.05039130
    22  N          0.05340820       0.73908000       0.94960870
    23  C          0.88512000       0.12243000       0.94803160
    24  C          0.11488000       0.87757000       0.05196840
    25  H          0.96260000       0.09480000       0.88860000
    26  H          0.03740000       0.90520000       0.11140000
    27  C          0.71372000       0.01752000       0.92473140
    28  C          0.28628000      -0.01752000       0.07526860
    29  H          0.67850000       0.92230000       0.85140000
    30  H          0.32150000       0.07770000       0.14860000
    31  C          0.59324190       0.05402000       0.01104130
    32  C          0.40675810       0.94598000      -0.01104130
    33  C          0.65792000       0.19762000       0.11834160
    34  C          0.34208000       0.80238000       0.88165840
    35  H          0.58360000       0.22860000       0.17940000
    36  H          0.41640000       0.77140000       0.82060000
    37  C          0.83262000       0.29392000       0.13402160
    38  C          0.16738000       0.70608000       0.86597840
    39  H          0.87310000       0.38760000       0.20740000
    40  H          0.12690000       0.61240000       0.79260000
    41  S          0.70916500       0.60808600       0.65386300
    42  S          0.29083500       0.39191400       0.34613700
    43  N          0.66682000       0.59672000       0.42821120
    44  N          0.33318000       0.40328000       0.57178880
    45  H          0.78130000       0.65830000       0.43961700
    46  H          0.21870000       0.34170000       0.56038300
    47  H          0.59630000       0.57020000       0.36681700
    48  H          0.40370000       0.42980000       0.63318300
    49  C          0.59805190       0.55319190       0.51613120
    50  C          0.40194810       0.44680810       0.48386880
    51  S          0.66399600       0.70518600       0.15736300
    52  S          0.33600400       0.29481400       0.84263700
    53  N          0.69362000       0.53772000       0.92717130
    54  N          0.30638000       0.46228000       0.07282870
    55  H          0.80840000       0.59930000       0.94141900
    56  H          0.19160000       0.40070000       0.05858100
    57  H          0.64630000       0.45730000       0.86501700
    58  H          0.35370000       0.54270000       0.13498300
    59  C          0.59514190       0.56022000       0.01687130
    60  C          0.40485810       0.43978000       0.98312870
