data_DONKIE
_symmetry_space_group_name_H-M    'P1'
_symmetry_Int_Tables_number       1
loop_
_symmetry_equiv_pos_site_id
_symmetry_equiv_pos_as_xyz
1 x,y,z
_cell_length_a                   5.51171
_cell_length_b                   10.61183
_cell_length_c                   28.16877
_cell_angle_alpha                81.1152
_cell_angle_beta                 87.1472
_cell_angle_gamma                86.3892
loop_
_atom_site_label
_atom_site_type_symbol
_atom_site_fract_x
_atom_site_fract_y
_atom_site_fract_z
     1  O          0.47773000       0.08537140       0.29399500
     2  O          0.52227000       0.91462860       0.70600500
     3  O          0.84523000       0.87187160       0.47354500
     4  O          0.15477000       0.12812840       0.52645500
     5  H          0.75240000       0.81420000       0.47413000
     6  H          0.24760000       0.18580000       0.52587000
     7  O          0.11423000       0.33687190       0.23236600
     8  O          0.88577000       0.66312810       0.76763400
     9  H          0.17850000       0.36930000       0.20686900
    10  H          0.82150000       0.63070000       0.79313100
    11  O          0.10694000       0.87172190       0.24519600
    12  O          0.89306000       0.12827810       0.75480400
    13  H          0.09750000       0.86430000       0.21687160
    14  H          0.90250000       0.13570000       0.78312840
    15  O          0.38964000       0.95812000       0.16784700
    16  O          0.61036000       0.04188000       0.83215300
    17  O          0.72835000       0.10803000       0.12794700
    18  O          0.27165000       0.89197000       0.87205300
    19  H          0.60950000       0.06540000       0.12845000
    20  H          0.39050000       0.93460000       0.87155000
    21  C          0.17923000       0.96382180       0.33810700
    22  C          0.82077000       0.03617820       0.66189300
    23  C          0.94974000       0.89914180       0.42882700
    24  C          0.05026000       0.10085820       0.57117300
    25  C          0.30594000      -0.00069810       0.29126700
    26  C          0.69406000       0.00069810       0.70873300
    27  C          0.62244000       0.12992000       0.25512700
    28  C          0.37756000       0.87008000       0.74487300
    29  C          0.26824000       0.00076190       0.37929700
    30  C          0.73176000      -0.00076190       0.62070300
    31  H          0.40604000       0.04805190       0.37649700
    32  H          0.59396000       0.95194810       0.62350300
    33  C          0.15544000       0.96842000       0.42385700
    34  C          0.84456000       0.03158000       0.57614300
    35  H          0.21844000      -0.00668000       0.45077700
    36  H          0.78156000       0.00668000       0.54922300
    37  C          0.85764000       0.86299190       0.38848800
    38  C          0.14236000       0.13700810       0.61151200
    39  H          0.71804000       0.81700190       0.39146800
    40  H          0.28196000       0.18299810       0.60853200
    41  C          0.79254000       0.21302000       0.26228700
    42  C          0.20746000       0.78698000       0.73771300
    43  H          0.80544000       0.23822000       0.29220700
    44  H          0.19456000       0.76178000       0.70779300
    45  C          0.97134000       0.89472000       0.34380800
    46  C          0.02866000       0.10528000       0.65619200
    47  H          0.90744000       0.86932000       0.31706800
    48  H          0.09256000       0.13068000       0.68293200
    49  C          0.59474000       0.09102000       0.21068800
    50  C          0.40526000       0.90898000       0.78931200
    51  C          0.27454000       0.95762000       0.24897800
    52  C          0.72546000       0.04238000       0.75102200
    53  C          0.94494000       0.25852000       0.22358800
    54  C          0.05506000       0.74148000       0.77641200
    55  C          0.42015000       0.00092000       0.20640800
    56  C          0.57985000      -0.00092000       0.79359200
    57  C          0.92245000       0.22373000       0.17827800
    58  C          0.07755000       0.77627000       0.82172200
    59  H          0.02435000       0.25623000       0.15259800
    60  H          0.97565000       0.74377000       0.84740200
    61  C          0.74985000       0.14153000       0.17186800
    62  C          0.25015000       0.85847000       0.82813200
    63  O          0.52947000       0.50767140       0.67729500
    64  O          0.47053000       0.49232860       0.32270500
    65  O          0.55673000       0.67656140       0.49355500
    66  O          0.44327000       0.32343860       0.50644500
    67  N          0.27613000       0.56402150       0.53844600
    68  N          0.72387000       0.43597850       0.46155400
    69  H          0.32203000       0.49925150       0.52459600
    70  H          0.67797000       0.50074850       0.47540400
    71  N          0.48197000       0.41331170       0.90623600
    72  N          0.51803000       0.58668830       0.09376400
    73  N          0.67376000       0.52772000       0.84900700
    74  N          0.32624000       0.47228000       0.15099300
    75  C          0.04273000       0.63727170       0.60521600
    76  C          0.95727000       0.36272830       0.39478400
    77  N          0.66776000       0.46092000       0.92582700
    78  N          0.33224000       0.53908000       0.07417300
    79  C          0.85467000       0.61918180       0.63941600
    80  C          0.14533000       0.38081820       0.36058400
    81  H          0.82457000       0.67717180       0.66089600
    82  H          0.17543000       0.32282820       0.33910400
    83  C          0.08223000       0.54946180       0.57333600
    84  C          0.91777000       0.45053820       0.42666400
    85  C          0.70947000       0.51511190       0.64215700
    86  C          0.29053000       0.48488810       0.35784300
    87  C          0.93776000       0.44709190       0.57548700
    88  C          0.06224000       0.55290810       0.42451300
    89  H          0.96606000       0.39002190       0.55359700
    90  H          0.03394000       0.60997810       0.44640300
    91  C          0.39254000       0.67078190       0.52555700
    92  C          0.60746000       0.32921810       0.47444300
    93  C          0.21674000       0.74249180       0.60194700
    94  C          0.78326000       0.25750820       0.39805300
    95  H          0.35294000       0.71356180       0.62212700
    96  H          0.64706000       0.28643820       0.37787300
    97  H          0.13484000       0.81583180       0.61375700
    98  H          0.86516000       0.18416820       0.38624300
    99  N          0.78056000       0.53012000       0.89118700
   100  N          0.21944000       0.46988000       0.10881300
   101  C          0.75066000       0.42889190       0.61009700
   102  C          0.24934000       0.57110810       0.38990300
   103  H          0.65396000       0.35951190       0.61175700
   104  H          0.34604000       0.64048810       0.38824300
   105  C          0.31456000       0.32882000       0.93641700
   106  C          0.68544000       0.67118000       0.06358300
   107  H          0.16196000       0.33212000       0.91972700
   108  H          0.83804000       0.66788000       0.08027300
   109  C          0.48896000       0.45432000       0.85902700
   110  C          0.51104000       0.54568000       0.14097300
   111  C          0.31034000       0.78176190       0.55042700
   112  C          0.68966000       0.21823810       0.44957300
   113  H          0.44534000       0.83611190       0.55047700
   114  H          0.55466000       0.16388810       0.44952300
   115  H          0.18224000       0.83151190       0.53240700
   116  H          0.81776000       0.16848810       0.46759300
   117  C          0.41116000       0.39072000       0.68946800
   118  C          0.58884000       0.60928000       0.31053200
   119  H          0.29876000       0.38142000       0.66496800
   120  H          0.70124000       0.61858000       0.33503200
   121  H          0.52986000       0.31872000       0.69209800
   122  H          0.47014000       0.68128000       0.30790200
   123  C          0.27616000       0.39592000       0.73700800
   124  C          0.72384000       0.60408000       0.26299200
   125  H          0.14966000       0.46412000       0.73313800
   126  H          0.85034000       0.53588000       0.26686200
   127  H          0.19866000       0.31612000       0.74721800
   128  H          0.80134000       0.68388000       0.25278200
   129  C          0.25875000       0.37592000       0.98391800
   130  C          0.74125000       0.62408000       0.01608200
   131  H          0.40905000       0.37882000       0.00012800
   132  H          0.59095000       0.62118000      -0.00012800
   133  H          0.18405000       0.46182000       0.97820800
   134  H          0.81595000       0.53818000       0.02179200
   135  C          0.44396000       0.41843000       0.77524800
   136  C          0.55604000       0.58157000       0.22475200
   137  H          0.57436000       0.35233000       0.77771800
   138  H          0.42564000       0.64767000       0.22228200
   139  H          0.51666000       0.49973000       0.76516800
   140  H          0.48334000       0.50027000       0.23483200
   141  C          0.41805000       0.19222000       0.94318900
   142  C          0.58195000       0.80778000       0.05681100
   143  H          0.44385000       0.16352000       0.91217900
   144  H          0.55615000       0.83648000       0.08782100
   145  H          0.57365000       0.18692000       0.95821900
   146  H          0.42635000       0.81308000       0.04178100
   147  C          0.32316000       0.41953000       0.82369800
   148  C          0.67684000       0.58047000       0.17630200
   149  H          0.26476000       0.33563000       0.83542800
   150  H          0.73524000       0.66437000       0.16457200
   151  H          0.18346000       0.48013000       0.82094800
   152  H          0.81654000       0.51987000       0.17905200
   153  C          0.24155000       0.10692000       0.97479100
   154  C          0.75845000       0.89308000       0.02520900
   155  H          0.30995000       0.01962000       0.97971100
   156  H          0.69005000       0.98038000       0.02028900
   157  H          0.08965000       0.10832000       0.95869100
   158  H          0.91035000       0.89168000       0.04130900
   159  C          0.08815000       0.28873000       0.01590900
   160  C          0.91185000       0.71127000       0.98409100
   161  H          0.93145000       0.29313000       0.00135900
   162  H          0.06855000       0.70687000      -0.00135900
   163  H          0.06355000       0.31753000       0.04693900
   164  H          0.93645000       0.68247000       0.95306100
   165  C          0.19294000       0.15183000       0.02281900
   166  C          0.80706000       0.84817000       0.97718100
   167  H          0.07934000       0.09723000       0.04220900
   168  H          0.92066000       0.90277000       0.95779100
   169  H          0.34334000       0.14623000       0.03969900
   170  H          0.65666000       0.85377000       0.96030100
   171  O          0.00071200       0.84405000       0.14702000
   172  O         -0.00071200       0.15595000       0.85298000
   173  H          0.11112000       0.87810000       0.12830000
   174  H          0.88888000       0.12190000       0.87170000
   175  H          0.87190000       0.88890000       0.13940000
   176  H          0.12810000       0.11110000       0.86060000
