data_DONLUN
_symmetry_space_group_name_H-M    'P1'
_symmetry_Int_Tables_number       1
loop_
_symmetry_equiv_pos_site_id
_symmetry_equiv_pos_as_xyz
1 x,y,z
_cell_length_a                   16.6712
_cell_length_b                   6.9401
_cell_length_c                   13.1802
_cell_angle_alpha                90.0
_cell_angle_beta                 90.0
_cell_angle_gamma                90.0
loop_
_atom_site_label
_atom_site_type_symbol
_atom_site_fract_x
_atom_site_fract_y
_atom_site_fract_z
     1  O          0.83052000       0.25000000       0.08842000
     2  O          0.66948000       0.75000000       0.58842000
     3  O          0.33052000       0.25000000       0.41158000
     4  O          0.16948000       0.75000000       0.91158000
     5  C          0.84953000       0.25000000       0.17993000
     6  C          0.65047000       0.75000000       0.67993000
     7  C          0.34953000       0.25000000       0.32007000
     8  C          0.15047000       0.75000000       0.82007000
     9  N          0.85942000       0.08553000       0.22992000
    10  N          0.64058000       0.91447000       0.72992000
    11  N          0.35942000       0.41447000       0.27008000
    12  N          0.14058000       0.58553000       0.77008000
    13  N          0.14058000       0.91447000       0.77008000
    14  N          0.35942000       0.08553000       0.27008000
    15  N          0.64058000       0.58553000       0.72992000
    16  N          0.85942000       0.41447000       0.22992000
    17  H          0.85380000       0.97080000       0.19870000
    18  H          0.64620000       0.02920000       0.69870000
    19  H          0.35380000       0.52920000       0.30130000
    20  H          0.14620000       0.47080000       0.80130000
    21  H          0.14620000       0.02920000       0.80130000
    22  H          0.35380000       0.97080000       0.30130000
    23  H          0.64620000       0.47080000       0.69870000
    24  H          0.85380000       0.52920000       0.19870000
    25  H          0.87250000       0.09030000       0.29610000
    26  H          0.62750000       0.90970000       0.79610000
    27  H          0.37250000       0.40970000       0.20390000
    28  H          0.12750000       0.59030000       0.70390000
    29  H          0.12750000       0.90970000       0.70390000
    30  H          0.37250000       0.09030000       0.20390000
    31  H          0.62750000       0.59030000       0.79610000
    32  H          0.87250000       0.40970000       0.29610000
    33  O          0.85002000       0.75000000       0.09472000
    34  O          0.64998000       0.25000000       0.59472000
    35  O          0.35002000       0.75000000       0.40528000
    36  O          0.14998000       0.25000000       0.90528000
    37  C          0.78593000       0.75000000       0.04583000
    38  C          0.71407000       0.25000000       0.54583000
    39  C          0.28593000       0.75000000       0.45417000
    40  C          0.21407000       0.25000000       0.95417000
    41  N          0.75002000       0.91353000       0.01812000
    42  N          0.74998000       0.08647000       0.51812000
    43  N          0.25002000       0.58647000       0.48188000
    44  N          0.24998000       0.41353000       0.98188000
    45  N          0.24998000       0.08647000       0.98188000
    46  N          0.25002000       0.91353000       0.48188000
    47  N          0.74998000       0.41353000       0.51812000
    48  N          0.75002000       0.58647000       0.01812000
    49  H          0.77190000       0.02850000       0.03320000
    50  H          0.72810000       0.97150000       0.53320000
    51  H          0.27190000       0.47150000       0.46680000
    52  H          0.22810000       0.52850000       0.96680000
    53  H          0.22810000       0.97150000       0.96680000
    54  H          0.27190000       0.02850000       0.46680000
    55  H          0.72810000       0.52850000       0.53320000
    56  H          0.77190000       0.47150000       0.03320000
    57  H          0.70340000       0.90780000       0.98380000
    58  H          0.79660000       0.09220000       0.48380000
    59  H          0.20340000       0.59220000       0.51620000
    60  H          0.29660000       0.40780000       0.01620000
    61  H          0.29660000       0.09220000       0.01620000
    62  H          0.20340000       0.90780000       0.51620000
    63  H          0.79660000       0.40780000       0.48380000
    64  H          0.70340000       0.59220000       0.98380000
    65  B          0.54223000       0.75000000       0.96147000
    66  B          0.95777000       0.25000000       0.46147000
    67  B          0.04223000       0.75000000       0.53853000
    68  B          0.45777000       0.25000000       0.03853000
    69  O          0.46881000       0.75000000      -0.00042000
    70  O          0.03119000       0.25000000       0.49958000
    71  O          0.96881000       0.75000000       0.50042000
    72  O          0.53119000       0.25000000       0.00042000
    73  O          0.58601000       0.91602000       0.93909000
    74  O          0.91399000       0.08398000       0.43909000
    75  O          0.08601000       0.58398000       0.56091000
    76  O          0.41399000       0.41602000       0.06091000
    77  O          0.41399000       0.08398000       0.06091000
    78  O          0.08601000       0.91602000       0.56091000
    79  O          0.91399000       0.41602000       0.43909000
    80  O          0.58601000       0.58398000       0.93909000
    81  H          0.56040000       0.03290000       0.95020000
    82  H          0.93960000       0.96710000       0.45020000
    83  H          0.06040000       0.46710000       0.54980000
    84  H          0.43960000       0.53290000       0.04980000
    85  H          0.43960000       0.96710000       0.04980000
    86  H          0.06040000       0.03290000       0.54980000
    87  H          0.93960000       0.53290000       0.45020000
    88  H          0.56040000       0.46710000       0.95020000
    89  O          0.37052000       0.75000000       0.82627000
    90  O          0.12948000       0.25000000       0.32627000
    91  O          0.87052000       0.75000000       0.67373000
    92  O          0.62948000       0.25000000       0.17373000
    93  H          0.38960000       0.75000000       0.88610000
    94  H          0.11040000       0.25000000       0.38610000
    95  H          0.88960000       0.75000000       0.61390000
    96  H          0.61040000       0.25000000       0.11390000
    97  H          0.31980000       0.75000000       0.83350000
    98  H          0.18020000       0.25000000       0.33350000
    99  H          0.81980000       0.75000000       0.66650000
   100  H          0.68020000       0.25000000       0.16650000
   101  N          0.58632000       0.75000000       0.31923000
   102  N          0.91368000       0.25000000       0.81923000
   103  N          0.08632000       0.75000000       0.18077000
   104  N          0.41368000       0.25000000       0.68077000
   105  C          0.67463000       0.75000000       0.30465000
   106  C          0.82537000       0.25000000       0.80465000
   107  C          0.17463000       0.75000000       0.19535000
   108  C          0.32537000       0.25000000       0.69535000
   109  C          0.54614000       0.75000000       0.21834000
   110  C          0.95386000       0.25000000       0.71834000
   111  C          0.04614000       0.75000000       0.28166000
   112  C          0.45386000       0.25000000       0.78166000
   113  C          0.56273000       0.57735000       0.37563000
   114  C          0.93727000       0.42265000       0.87563000
   115  C          0.06273000       0.92265000       0.12437000
   116  C          0.43727000       0.07735000       0.62437000
   117  C          0.43727000       0.42265000       0.62437000
   118  C          0.06273000       0.57735000       0.12437000
   119  C          0.93727000       0.07735000       0.87563000
   120  C          0.56273000       0.92265000       0.37563000
   121  H          0.69940000       0.75000000       0.37040000
   122  H          0.80060000       0.25000000       0.87040000
   123  H          0.19940000       0.75000000       0.12960000
   124  H          0.30060000       0.25000000       0.62960000
   125  H          0.69090000       0.86290000       0.26790000
   126  H          0.80910000       0.13710000       0.76790000
   127  H          0.19090000       0.63710000       0.23210000
   128  H          0.30910000       0.36290000       0.73210000
   129  H          0.30910000       0.13710000       0.73210000
   130  H          0.19090000       0.86290000       0.23210000
   131  H          0.80910000       0.36290000       0.76790000
   132  H          0.69090000       0.63710000       0.26790000
   133  H          0.48920000       0.75000000       0.22910000
   134  H          0.01080000       0.25000000       0.72910000
   135  H          0.98920000       0.75000000       0.27090000
   136  H          0.51080000       0.25000000       0.77090000
   137  H          0.56130000       0.86260000       0.18060000
   138  H          0.93870000       0.13740000       0.68060000
   139  H          0.06130000       0.63740000       0.31940000
   140  H          0.43870000       0.36260000       0.81940000
   141  H          0.43870000       0.13740000       0.81940000
   142  H          0.06130000       0.86260000       0.31940000
   143  H          0.93870000       0.36260000       0.68060000
   144  H          0.56130000       0.63740000       0.18060000
   145  H          0.58930000       0.57510000       0.44010000
   146  H          0.91070000       0.42490000       0.94010000
   147  H          0.08930000       0.92490000       0.05990000
   148  H          0.41070000       0.07510000       0.55990000
   149  H          0.41070000       0.42490000       0.55990000
   150  H          0.08930000       0.57510000       0.05990000
   151  H          0.91070000       0.07510000       0.94010000
   152  H          0.58930000       0.92490000       0.44010000
   153  H          0.57740000       0.46470000       0.33750000
   154  H          0.92260000       0.53530000       0.83750000
   155  H          0.07740000       0.03530000       0.16250000
   156  H          0.42260000       0.96470000       0.66250000
   157  H          0.42260000       0.53530000       0.66250000
   158  H          0.07740000       0.46470000       0.16250000
   159  H          0.92260000       0.96470000       0.83750000
   160  H          0.57740000       0.03530000       0.33750000
   161  H          0.50570000       0.57870000       0.38580000
   162  H         -0.00570000       0.42130000       0.88580000
   163  H          0.00570000       0.92130000       0.11420000
   164  H          0.49430000       0.07870000       0.61420000
   165  H          0.49430000       0.42130000       0.61420000
   166  H          0.00570000       0.57870000       0.11420000
   167  H         -0.00570000       0.07870000       0.88580000
   168  H          0.50570000       0.92130000       0.38580000
