data_DOQCOE
_symmetry_space_group_name_H-M    'P1'
_symmetry_Int_Tables_number       1
loop_
_symmetry_equiv_pos_site_id
_symmetry_equiv_pos_as_xyz
1 x,y,z
_cell_length_a                   9.49149
_cell_length_b                   8.05548
_cell_length_c                   14.914515
_cell_angle_alpha                90.0
_cell_angle_beta                 90.0
_cell_angle_gamma                90.0
loop_
_atom_site_label
_atom_site_type_symbol
_atom_site_fract_x
_atom_site_fract_y
_atom_site_fract_z
     1  O          0.86290110       0.16950140       0.60962800
     2  O          0.36290110       0.33049860       0.39037200
     3  O          0.13709890       0.66950140       0.89037200
     4  O          0.63709890       0.83049860       0.10962800
     5  O          0.13709890       0.83049860       0.39037200
     6  O          0.63709890       0.66950140       0.60962800
     7  O          0.86290110       0.33049860       0.10962800
     8  O          0.36290110       0.16950140       0.89037200
     9  O          0.69501100       0.04760150       0.52973700
    10  O          0.19501100       0.45239850       0.47026300
    11  O          0.30498900       0.54760150       0.97026300
    12  O          0.80498900       0.95239850       0.02973700
    13  O          0.30498900       0.95239850       0.47026300
    14  O          0.80498900       0.54760150       0.52973700
    15  O          0.69501100       0.45239850       0.02973700
    16  O          0.19501100       0.04760150       0.97026300
    17  C          0.81979150       0.07159180       0.54623900
    18  C          0.31979150       0.42840820       0.45376100
    19  C          0.18020850       0.57159180       0.95376100
    20  C          0.68020850       0.92840820       0.04623900
    21  C          0.18020850       0.92840820       0.45376100
    22  C          0.68020850       0.57159180       0.54623900
    23  C          0.81979150       0.42840820       0.04623900
    24  C          0.31979150       0.07159180       0.95376100
    25  C          0.93221150      -0.01112000       0.49326100
    26  C          0.43221150       0.51112000       0.50673900
    27  C          0.06778850       0.48888000       0.00673900
    28  C          0.56778850       0.01112000      -0.00673900
    29  C          0.06778850       0.01112000       0.50673900
    30  C          0.56778850       0.48888000       0.49326100
    31  C          0.93221150       0.51112000      -0.00673900
    32  C          0.43221150      -0.01112000       0.00673900
    33  H          0.89981900       0.91380000       0.44851300
    34  H          0.39981900       0.58620000       0.55148700
    35  H          0.10018100       0.41380000       0.05148700
    36  H          0.60018100       0.08620000       0.94851300
    37  H          0.10018100       0.08620000       0.55148700
    38  H          0.60018100       0.41380000       0.44851300
    39  H          0.89981900       0.58620000       0.94851300
    40  H          0.39981900       0.91380000       0.05148700
    41  H          0.78030000       0.21740000       0.64431900
    42  H          0.28030000       0.28260000       0.35568100
    43  H          0.21970000       0.71740000       0.85568100
    44  H          0.71970000       0.78260000       0.14431900
    45  H          0.21970000       0.78260000       0.35568100
    46  H          0.71970000       0.71740000       0.64431900
    47  H          0.78030000       0.28260000       0.14431900
    48  H          0.28030000       0.21740000       0.85568100
    49  O          0.65939110       0.29427140       0.69189700
    50  O          0.15939110       0.20572860       0.30810300
    51  O          0.34060890       0.79427140       0.80810300
    52  O          0.84060890       0.70572860       0.19189700
    53  O          0.34060890       0.70572860       0.30810300
    54  O          0.84060890       0.79427140       0.69189700
    55  O          0.65939110       0.20572860       0.19189700
    56  O          0.15939110       0.29427140       0.80810300
    57  O          0.76271120       0.35019150       0.82286800
    58  O          0.26271120       0.14980850       0.17713200
    59  O          0.23728880       0.85019150       0.67713200
    60  O          0.73728880       0.64980850       0.32286800
    61  O          0.23728880       0.64980850       0.17713200
    62  O          0.73728880       0.85019150       0.82286800
    63  O          0.76271120       0.14980850       0.32286800
    64  O          0.26271120       0.35019150       0.67713200
    65  N          0.56956130       0.57915160       0.86929800
    66  N          0.06956130       0.92084840       0.13070200
    67  N          0.43043870       0.07915160       0.63070200
    68  N          0.93043870       0.42084840       0.36929800
    69  N          0.43043870       0.42084840       0.13070200
    70  N          0.93043870       0.07915160       0.86929800
    71  N          0.56956130       0.92084840       0.36929800
    72  N          0.06956130       0.57915160       0.63070200
    73  C          0.66702140       0.36388160       0.76779900
    74  C          0.16702140       0.13611840       0.23220100
    75  C          0.33297860       0.86388160       0.73220100
    76  C          0.83297860       0.63611840       0.26779900
    77  C          0.33297860       0.63611840       0.23220100
    78  C          0.83297860       0.86388160       0.76779900
    79  C          0.66702140       0.13611840       0.26779900
    80  C          0.16702140       0.36388160       0.73220100
    81  C          0.54210150       0.47230190       0.79078100
    82  C          0.04210150       0.02769810       0.20921900
    83  C          0.45789850       0.97230190       0.70921900
    84  C          0.95789850       0.52769810       0.29078100
    85  C          0.45789850       0.52769810       0.20921900
    86  C          0.95789850       0.97230190       0.79078100
    87  C          0.54210150       0.02769810       0.29078100
    88  C          0.04210150       0.47230190       0.70921900
    89  H          0.52091800       0.53820000       0.74161200
    90  H          0.02091800       0.96180000       0.25838800
    91  H          0.47908200       0.03820000       0.75838800
    92  H          0.97908200       0.46180000       0.24161200
    93  H          0.47908200       0.46180000       0.25838800
    94  H          0.97908200       0.03820000       0.74161200
    95  H          0.52091800       0.96180000       0.24161200
    96  H          0.02091800       0.53820000       0.75838800
    97  H          0.46320000       0.40220000       0.80481200
    98  H          0.96320000       0.09780000       0.19518800
    99  H          0.53680000       0.90220000       0.69518800
   100  H          0.03680000       0.59780000       0.30481200
   101  H          0.53680000       0.59780000       0.19518800
   102  H          0.03680000       0.90220000       0.80481200
   103  H          0.46320000       0.09780000       0.30481200
   104  H          0.96320000       0.40220000       0.69518800
   105  H          0.61920000       0.52320000       0.91171300
   106  H          0.11920000       0.97680000       0.08828700
   107  H          0.38080000       0.02320000       0.58828700
   108  H          0.88080000       0.47680000       0.41171300
   109  H          0.38080000       0.47680000       0.08828700
   110  H          0.88080000       0.02320000       0.91171300
   111  H          0.61920000       0.97680000       0.41171300
   112  H          0.11920000       0.52320000       0.58828700
   113  H          0.62820000       0.66930000       0.85271400
   114  H          0.12820000       0.83070000       0.14728600
   115  H          0.37180000       0.16930000       0.64728600
   116  H          0.87180000       0.33070000       0.35271400
   117  H          0.37180000       0.33070000       0.14728600
   118  H          0.87180000       0.16930000       0.85271400
   119  H          0.62820000       0.83070000       0.35271400
   120  H          0.12820000       0.66930000       0.64728600
   121  H          0.48320000       0.61220000       0.89551400
   122  H          0.98320000       0.88780000       0.10448600
   123  H          0.51680000       0.11220000       0.60448600
   124  H          0.01680000       0.38780000       0.39551400
   125  H          0.51680000       0.38780000       0.10448600
   126  H          0.01680000       0.11220000       0.89551400
   127  H          0.48320000       0.88780000       0.39551400
   128  H          0.98320000       0.61220000       0.60448600
