data_DOQDIA
_symmetry_space_group_name_H-M    'P1'
_symmetry_Int_Tables_number       1
loop_
_symmetry_equiv_pos_site_id
_symmetry_equiv_pos_as_xyz
1 x,y,z
_cell_length_a                   8.189218
_cell_length_b                   9.506116
_cell_length_c                   11.137119
_cell_angle_alpha                86.02114
_cell_angle_beta                 71.60718
_cell_angle_gamma                70.32418
loop_
_atom_site_label
_atom_site_type_symbol
_atom_site_fract_x
_atom_site_fract_y
_atom_site_fract_z
     1  C          0.02048000       0.64547000       0.73095000
     2  N          0.83336000       0.69015000       0.77604000
     3  O          0.54186000       0.71586000       0.02194000
     4  S          0.58230170       0.58414150       0.75948130
     5  C          0.08638000       0.48067000       0.75165000
     6  N          0.75616000       0.48975000       0.03664000
     7  O          0.11066000       0.72335000       0.67935000
     8  C          0.92437000       0.42546000       0.81565000
     9  O          0.24456000       0.40265000       0.71534000
    10  C          0.75988000       0.57246000       0.83185000
    11  O          0.85858000       0.20675000       0.79104000
    12  C          0.66998000       0.60367000       0.97525000
    13  C          0.91378000       0.37476000       0.95395000
    14  H          0.88741500       0.28059000       0.96397000
    15  C          0.08648000       0.34976000      -0.01275000
    16  C          0.21391000       0.20648000       0.96586000
    17  H          0.18775600       0.12777800       0.93994400
    18  C          0.38131100       0.18301100       0.98397000
    19  H          0.46927600       0.08837700       0.96835000
    20  C          0.41681100       0.29751200       0.02407000
    21  H          0.52910500       0.27994100       0.03630200
    22  C          0.29191000       0.43791000       0.04687000
    23  H          0.31824400       0.51465500       0.07569900
    24  C          0.12479000       0.46587000       0.02675000
    25  H          0.03975000       0.56182200       0.03972500
    26  C          0.69298000       0.47258000       0.17055000
    27  C          0.72111100       0.33319000       0.21876000
    28  H          0.78594000       0.24966500       0.16362900
    29  C          0.65621300       0.31291100       0.34627000
    30  H          0.67718900       0.21660600       0.37594900
    31  C          0.56371400       0.43011500       0.42737000
    32  H          0.52061600       0.41622900       0.51353800
    33  C          0.53251800       0.57131500       0.38239000
    34  H          0.46725000       0.65330900       0.43884300
    35  C          0.59711500       0.59501100       0.25237000
    36  H          0.57547000       0.69123600       0.22253400
    37  C          0.70818000       0.81126000       0.73625000
    38  C          0.71889000       0.95197000       0.71126000
    39  H          0.81251200       0.97764700       0.72350700
    40  C          0.58831100       0.05348000       0.66767000
    41  H          0.59366100       0.14899600       0.64960800
    42  C          0.44871100       0.01508000       0.65018000
    43  H          0.36134100       0.08507300       0.62021500
    44  C          0.43751000       0.87368000       0.67656000
    45  H          0.34352400       0.84827700       0.66418300
    46  C          0.56668000       0.77137000       0.72105000
    47  C          0.91949000       0.30107000       0.73466000
    48  C          0.99249000       0.29068000       0.59406000
    49  C          0.00401200       0.41171000       0.51936000
    50  H          0.96803100       0.50573300       0.55777800
    51  C          0.06761600       0.39571300       0.38978000
    52  H          0.07212800       0.47872800       0.34099800
    53  C          0.12491700       0.25641500       0.33168000
    54  H          0.16952300       0.24441400       0.24377300
    55  C          0.11521600       0.13641400       0.40468000
    56  H          0.15385000       0.04254600       0.36520900
    57  C          0.04941100       0.15019000       0.53607000
    58  H          0.04362100       0.06688300       0.58413200
    59  C          0.93240000       0.81920000       0.38021800
    60  H          0.90318600       0.72873900       0.40089900
    61  H          0.84506200       0.89799900       0.44020300
    62  H          0.05221000       0.80409000       0.38301600
    63  C          0.92330000       0.85851600       0.25951500
    64  C          0.76130000       0.90920000       0.22920000
    65  H          0.64840600       0.92424100       0.29077600
    66  C          0.77730000       0.93420000       0.10320000
    67  H          0.66888800       0.97223800       0.08217200
    68  C          0.93830000       0.90891800       0.00520000
    69  H          0.93920400       0.92234400       0.92164500
    70  C          0.09730000       0.86271700       0.03661500
    71  H          0.20970600       0.84919500       0.97605700
    72  C          0.07951500       0.83811100       0.16021400
    73  H          0.18784800       0.80284300       0.18036500
