data_DOSPUY
_symmetry_space_group_name_H-M    'P1'
_symmetry_Int_Tables_number       1
loop_
_symmetry_equiv_pos_site_id
_symmetry_equiv_pos_as_xyz
1 x,y,z
_cell_length_a                   5.29558
_cell_length_b                   7.818513
_cell_length_c                   18.4243
_cell_angle_alpha                85.0421
_cell_angle_beta                 83.5431
_cell_angle_gamma                71.9121
loop_
_atom_site_label
_atom_site_type_symbol
_atom_site_fract_x
_atom_site_fract_y
_atom_site_fract_z
     1  N          0.89097000       0.42622000       0.09542800
     2  N          0.10903000       0.57378000       0.90457200
     3  C          0.93306000       0.43842000       0.02012900
     4  C          0.06694000       0.56158000       0.97987100
     5  N          0.83627000       0.32522000       0.98961100
     6  N          0.16373000       0.67478000       0.01038900
     7  C          0.72356000       0.23993000       0.04762110
     8  C          0.27644000       0.76007000       0.95237890
     9  H          0.63770000       0.15180000       0.04290000
    10  H          0.36230000       0.84820000       0.95710000
    11  C          0.75376000       0.30083000       0.11255100
    12  C          0.24624000       0.69917000       0.88744900
    13  H          0.69280000       0.26440000       0.16010000
    14  H          0.30720000       0.73560000       0.83990000
    15  N          0.81377000       0.77712000       0.22668800
    16  N          0.18623000       0.22288000       0.77331200
    17  C          0.76016000       0.69782000       0.17005900
    18  C          0.23984000       0.30218000       0.82994100
    19  C          0.53106000       0.77313000       0.13338100
    20  C          0.46894000       0.22687000       0.86661900
    21  H          0.49780000       0.71400000       0.09420000
    22  H          0.50220000       0.28600000       0.90580000
    23  C          0.35256000       0.93603000       0.15518110
    24  C          0.64744000       0.06397000       0.84481890
    25  H          0.19530000      -0.01030000       0.13100000
    26  H          0.80470000       0.01030000       0.86900000
    27  C          0.40646000       0.01953000       0.21275110
    28  C          0.59354000       0.98047000       0.78724890
    29  H          0.28810000       0.13120000       0.22840000
    30  H          0.71190000       0.86880000       0.77160000
    31  C          0.63806000       0.93513000       0.24662110
    32  C          0.36194000       0.06487000       0.75337890
    33  H          0.67470000      -0.00810000       0.28600000
    34  H          0.32530000       0.00810000       0.71400000
    35  C          0.96826000       0.52163000       0.15077900
    36  C          0.03174000       0.47837000       0.84922100
    37  H          0.13730000       0.54610000       0.13220000
    38  H          0.86270000       0.45390000       0.86780000
    39  H          0.00170000       0.44210000       0.19570000
    40  H         -0.00170000       0.55790000       0.80430000
    41  C          0.39034000       0.52892000       0.31903900
    42  C          0.60966000       0.47108000       0.68096100
    43  O          0.19293000       0.68341180       0.32381700
    44  O          0.80707000       0.31658820       0.67618300
    45  H          0.09350000       0.69830000       0.28631300
    46  H          0.90650000       0.30170000       0.71368700
    47  O          0.41403000       0.41949180       0.27322700
    48  O          0.58597000       0.58050820       0.72677300
    49  C          0.58104000       0.50303000       0.37795100
    50  C          0.41896000       0.49697000       0.62204900
    51  H          0.47950000       0.50400000       0.42650000
    52  H          0.52050000       0.49600000       0.57350000
    53  H          0.65330000       0.60640000       0.37380000
    54  H          0.34670000       0.39360000       0.62620000
    55  C          0.81364000       0.32893000       0.37396100
    56  C          0.18636000       0.67107000       0.62603900
    57  H          0.92790000       0.33350000       0.32790000
    58  H          0.07210000       0.66650000       0.67210000
    59  H          0.74280000       0.22600000       0.37280000
    60  H          0.25720000       0.77400000       0.62720000
    61  C          0.98414000       0.29733000       0.43901900
    62  C          0.01586000       0.70267000       0.56098100
    63  H          0.05490000       0.40020000       0.44010000
    64  H          0.94510000       0.59980000       0.55990000
    65  H          0.86950000       0.29300000       0.48500000
    66  H          0.13050000       0.70700000       0.51500000
    67  C          0.21724000       0.12293000       0.43539100
    68  C          0.78276000       0.87707000       0.56460900
    69  H          0.33410000       0.12860000       0.39000000
    70  H          0.66590000       0.87140000       0.61000000
    71  H          0.14660000       0.02040000       0.43290000
    72  H          0.85340000       0.97960000       0.56710000
    73  C          0.38434000       0.08812000       0.50118100
    74  C          0.61566000       0.91188000       0.49881900
    75  H          0.45710000       0.18970000       0.50310000
    76  H          0.54290000       0.81030000       0.49690000
    77  H          0.26640000       0.08480000       0.54660000
    78  H          0.73360000       0.91520000       0.45340000
