data_DOSPOS
_symmetry_space_group_name_H-M    'P1'
_symmetry_Int_Tables_number       1
loop_
_symmetry_equiv_pos_site_id
_symmetry_equiv_pos_as_xyz
1 x,y,z
_cell_length_a                   5.27318
_cell_length_b                   7.846411
_cell_length_c                   17.1633
_cell_angle_alpha                81.9646
_cell_angle_beta                 88.9386
_cell_angle_gamma                72.4996
loop_
_atom_site_label
_atom_site_type_symbol
_atom_site_fract_x
_atom_site_fract_y
_atom_site_fract_z
     1  N          0.56828190       0.59508130       0.39717500
     2  N          0.43171810       0.40491870       0.60282500
     3  C          0.55772000       0.56611150       0.47824700
     4  C          0.44228000       0.43388850       0.52175300
     5  N          0.66832000       0.67227140       0.51101600
     6  N          0.33168000       0.32772860       0.48898400
     7  C          0.75563000       0.77061170       0.44862800
     8  C          0.24437000       0.22938830       0.55137200
     9  H          0.84360000       0.85800000       0.45370000
    10  H          0.15640000       0.14200000       0.54630000
    11  C          0.69762000       0.72438160       0.37873700
    12  C          0.30238000       0.27561840       0.62126300
    13  H          0.73800000       0.77170000       0.32760000
    14  H          0.26200000       0.22830000       0.67240000
    15  N          0.58920190       0.27407130       0.25603600
    16  N          0.41079810       0.72592870       0.74396400
    17  C          0.66642000       0.34089150       0.31707600
    18  C          0.33358000       0.65910850       0.68292400
    19  C          0.91082000       0.25765160       0.35687700
    20  C          0.08918000       0.74234840       0.64312300
    21  H          0.96080000       0.30760000       0.39930000
    22  H          0.03920000       0.69240000       0.60070000
    23  C          0.08002000       0.10032170       0.33342800
    24  C          0.91998000       0.89967830       0.66657200
    25  H          0.24730000       0.04200000       0.35950000
    26  H          0.75270000       0.95800000       0.64050000
    27  C          0.00063000       0.02987170       0.27135800
    28  C         -0.00063000       0.97012830       0.72864200
    29  H          0.11130000       0.92240000       0.25440000
    30  H          0.88870000       0.07760000       0.74560000
    31  C          0.75453000       0.12115170       0.23480700
    32  C          0.24547000       0.87884830       0.76519300
    33  H          0.70000000       0.07290000       0.19250000
    34  H          0.30000000       0.92710000       0.80750000
    35  C          0.46692000       0.51194160       0.33784700
    36  C          0.53308000       0.48805840       0.66215300
    37  H          0.41530000       0.60040000       0.28940000
    38  H          0.58470000       0.39960000       0.71060000
    39  H          0.30500000       0.48330000       0.35780000
    40  H          0.69500000       0.51670000       0.64220000
    41  C          0.97478000       0.54231150       0.15652700
    42  C          0.02522000       0.45768850       0.84347300
    43  O          0.17061170       0.39039120       0.15068500
    44  O          0.82938830       0.60960880       0.84931500
    45  H          0.29330000       0.37020000       0.19011000
    46  H          0.70670000       0.62980000       0.80989000
    47  O          0.97270830       0.63900120       0.20646500
    48  O          0.02729170       0.36099880       0.79353500
    49  C          0.75838000       0.58204160       0.09348700
    50  C          0.24162000       0.41795840       0.90651300
    51  H          0.68720000       0.47810000       0.09710000
    52  H          0.31280000       0.52190000       0.90290000
    53  H          0.83840000       0.59430000       0.04110000
    54  H          0.16160000       0.40570000       0.95890000
    55  C          0.52798000       0.75304160       0.09948700
    56  C          0.47202000       0.24695840       0.90051300
    57  H          0.60040000       0.85490000       0.10210000
    58  H          0.39960000       0.14510000       0.89790000
    59  H          0.43320000       0.73540000       0.14890000
    60  H          0.56680000       0.26460000       0.85110000
    61  C          0.32948000       0.80185160       0.02968700
    62  C          0.67052000       0.19814840       0.97031300
    63  H          0.42450000       0.81950000       0.98030000
    64  H          0.57550000       0.18050000       0.01970000
    65  H          0.25750000       0.69990000       0.02700000
    66  H          0.74250000       0.30010000       0.97300000
    67  C          0.09798000       0.97296160       0.03533700
    68  C          0.90202000       0.02703840       0.96466300
    69  H          0.17070000       0.07380000       0.03980000
    70  H          0.82930000       0.92620000       0.96020000
    71  H          0.00010000       0.95370000       0.08390000
    72  H         -0.00010000       0.04630000       0.91610000
