data_DOSPIM
_symmetry_space_group_name_H-M    'P1'
_symmetry_Int_Tables_number       1
loop_
_symmetry_equiv_pos_site_id
_symmetry_equiv_pos_as_xyz
1 x,y,z
_cell_length_a                   5.10241
_cell_length_b                   8.012815
_cell_length_c                   16.4973
_cell_angle_alpha                99.9409
_cell_angle_beta                 93.9671
_cell_angle_gamma                108.2318
loop_
_atom_site_label
_atom_site_type_symbol
_atom_site_fract_x
_atom_site_fract_y
_atom_site_fract_z
     1  N         -0.02493000       0.61072000       0.10887100
     2  N          0.02493000       0.38928000       0.89112900
     3  C          0.95066000       0.56853000       0.02317120
     4  C          0.04934000       0.43147000       0.97682880
     5  N          0.82336000       0.66692000       0.98856890
     6  N          0.17664000       0.33308000       0.01143110
     7  C          0.76126000       0.77423000       0.05461140
     8  C          0.23874000       0.22577000       0.94538860
     9  H          0.66900000       0.85880000       0.04930000
    10  H          0.33100000       0.14120000       0.95070000
    11  C          0.85135000       0.74143000       0.12876140
    12  C          0.14865000       0.25857000       0.87123860
    13  H          0.83280000       0.79700000       0.18280000
    14  H          0.16720000       0.20300000       0.81720000
    15  N          0.02714000       0.31662000       0.25643110
    16  N         -0.02714000       0.68338000       0.74356890
    17  C          0.91676000       0.37203000       0.19294120
    18  C          0.08324000       0.62797000       0.80705880
    19  C          0.64906000       0.27943000       0.15120130
    20  C          0.35094000       0.72057000       0.84879870
    21  H          0.57610000       0.32140000       0.10720000
    22  H          0.42390000       0.67860000       0.89280000
    23  C          0.49025000       0.12343000       0.17544140
    24  C          0.50975000       0.87657000       0.82455860
    25  H          0.30720000       0.05840000       0.14820000
    26  H          0.69280000       0.94160000       0.85180000
    27  C          0.60275000       0.06463000       0.23970140
    28  C          0.39725000       0.93537000       0.76029860
    29  H          0.49910000       0.95870000       0.25680000
    30  H          0.50090000       0.04130000       0.74320000
    31  C          0.87015000       0.16433000       0.27821140
    32  C          0.12985000       0.83567000       0.72178860
    33  H          0.94710000       0.12390000       0.32200000
    34  H          0.05290000       0.87610000       0.67800000
    35  C          0.10804000       0.54163000       0.17169120
    36  C          0.89196000       0.45837000       0.82830880
    37  H          0.17470000       0.63570000       0.22300000
    38  H          0.82530000       0.36430000       0.77700000
    39  H          0.27240000       0.51680000       0.15100000
    40  H          0.72760000       0.48320000       0.84900000
    41  C          0.68694000       0.61003000       0.36510130
    42  C          0.31306000       0.38997000       0.63489870
    43  O          0.49963000       0.45192000       0.36745100
    44  O          0.50037000       0.54808000       0.63254900
    45  H          0.34860000       0.41640000       0.32361700
    46  H          0.65140000       0.58360000       0.67638300
    47  C          0.93545000       0.66553000       0.43187130
    48  C          0.06455000       0.33447000       0.56812870
    49  H          0.02500000       0.57170000       0.42530000
    50  H         -0.02500000       0.42830000       0.57470000
    51  H          0.86900000       0.67290000       0.48690000
    52  H          0.13100000       0.32710000       0.51310000
    53  O          0.65913000       0.70122000       0.31461100
    54  O          0.34087000       0.29878000       0.68538900
    55  C          0.15225000       0.84553000       0.42950130
    56  C          0.84775000       0.15447000       0.57049870
    57  H          0.05900000       0.93720000       0.43110000
    58  H          0.94100000       0.06280000       0.56890000
    59  H          0.23040000       0.83490000       0.37630000
    60  H          0.76960000       0.16510000       0.62370000
    61  C          0.39205000       0.90993000       0.50141130
    62  C          0.60795000       0.09007000       0.49858870
    63  H          0.31400000       0.92070000       0.55460000
    64  H          0.68600000       0.07930000       0.44540000
    65  H          0.48540000       0.81840000       0.49980000
    66  H          0.51460000       0.18160000       0.50020000
