data_DOSSEM
_symmetry_space_group_name_H-M    'P1'
_symmetry_Int_Tables_number       1
loop_
_symmetry_equiv_pos_site_id
_symmetry_equiv_pos_as_xyz
1 x,y,z
_cell_length_a                   16.72966
_cell_length_b                   11.38984
_cell_length_c                   12.81585
_cell_angle_alpha                90.0
_cell_angle_beta                 108.0184
_cell_angle_gamma                90.0
loop_
_atom_site_label
_atom_site_type_symbol
_atom_site_fract_x
_atom_site_fract_y
_atom_site_fract_z
     1  I          0.17594200       0.50000000       0.10636300
     2  I          0.82405800       0.50000000       0.89363700
     3  I          0.67594200       0.00000000       0.10636300
     4  I          0.32405800       0.00000000       0.89363700
     5  Br         0.21648500       0.50000000       0.32932700
     6  Br         0.78351500       0.50000000       0.67067300
     7  Br         0.71648500       0.00000000       0.32932700
     8  Br         0.28351500       0.00000000       0.67067300
     9  Br         0.13938600       0.50000000       0.89086300
    10  Br         0.86061400       0.50000000       0.10913700
    11  Br         0.63938600       0.00000000       0.89086300
    12  Br         0.36061400       0.00000000       0.10913700
    13  I          0.41615300       0.50000000       0.44351300
    14  I          0.58384700       0.50000000       0.55648700
    15  I          0.91615300       0.00000000       0.44351300
    16  I          0.08384700       0.00000000       0.55648700
    17  N          0.50783000       0.66114000       0.80004000
    18  N          0.49217000       0.66114000       0.19996000
    19  N          0.00783000       0.16114000       0.80004000
    20  N         -0.00783000       0.16114000       0.19996000
    21  N          0.49217000       0.33886000       0.19996000
    22  N          0.50783000       0.33886000       0.80004000
    23  N         -0.00783000       0.83886000       0.19996000
    24  N          0.00783000       0.83886000       0.80004000
    25  N          0.31294000       0.50000000       0.66837000
    26  N          0.68706000       0.50000000       0.33163000
    27  N          0.81294000       0.00000000       0.66837000
    28  N          0.18706000       0.00000000       0.33163000
    29  C          0.46723000       0.56005000       0.77314000
    30  C          0.53277000       0.56005000       0.22686000
    31  C          0.96723000       0.06005000       0.77314000
    32  C          0.03277000       0.06005000       0.22686000
    33  C          0.53277000       0.43995000       0.22686000
    34  C          0.46723000       0.43995000       0.77314000
    35  C          0.03277000       0.93995000       0.22686000
    36  C          0.96723000       0.93995000       0.77314000
    37  C          0.39464000       0.50000000       0.72416000
    38  C          0.60536000       0.50000000       0.27584000
    39  C          0.89464000       0.00000000       0.72416000
    40  C          0.10536000       0.00000000       0.27584000
    41  C          0.59883000       0.66186000       0.86015000
    42  C          0.40117000       0.66186000       0.13985000
    43  C          0.09883000       0.16186000       0.86015000
    44  C          0.90117000       0.16186000       0.13985000
    45  C          0.40117000       0.33814000       0.13985000
    46  C          0.59883000       0.33814000       0.86015000
    47  C          0.90117000       0.83814000       0.13985000
    48  C          0.09883000       0.83814000       0.86015000
    49  H          0.62451300       0.72832200       0.83567400
    50  H          0.37548700       0.72832200       0.16432600
    51  H          0.12451300       0.22832200       0.83567400
    52  H          0.87548700       0.22832200       0.16432600
    53  H          0.37548700       0.27167800       0.16432600
    54  H          0.62451300       0.27167800       0.83567400
    55  H          0.87548700       0.77167800       0.16432600
    56  H          0.12451300       0.77167800       0.83567400
    57  H          0.62390700       0.59095800       0.84208700
    58  H          0.37609300       0.59095800       0.15791300
    59  H          0.12390700       0.09095800       0.84208700
    60  H          0.87609300       0.09095800       0.15791300
    61  H          0.37609300       0.40904200       0.15791300
    62  H          0.62390700       0.40904200       0.84208700
    63  H          0.87609300       0.90904200       0.15791300
    64  H          0.12390700       0.90904200       0.84208700
    65  C          0.46474000       0.77315000       0.76146000
    66  C          0.53526000       0.77315000       0.23854000
    67  C          0.96474000       0.27315000       0.76146000
    68  C          0.03526000       0.27315000       0.23854000
    69  C          0.53526000       0.22685000       0.23854000
    70  C          0.46474000       0.22685000       0.76146000
    71  C          0.03526000       0.72685000       0.23854000
    72  C          0.96474000       0.72685000       0.76146000
    73  H          0.48782900       0.83347400       0.81578300
    74  H          0.51217100       0.83347400       0.18421700
    75  H          0.98782900       0.33347400       0.81578300
    76  H          0.01217100       0.33347400       0.18421700
    77  H          0.51217100       0.16652600       0.18421700
    78  H          0.48782900       0.16652600       0.81578300
    79  H          0.01217100       0.66652600       0.18421700
    80  H          0.98782900       0.66652600       0.81578300
    81  H          0.40552600       0.76486400       0.75395800
    82  H          0.59447400       0.76486400       0.24604200
    83  H          0.90552600       0.26486400       0.75395800
    84  H          0.09447400       0.26486400       0.24604200
    85  H          0.59447400       0.23513600       0.24604200
    86  H          0.40552600       0.23513600       0.75395800
    87  H          0.09447400       0.73513600       0.24604200
    88  H          0.90552600       0.73513600       0.75395800
    89  C          0.47394000       0.81096000       0.65327000
    90  C          0.52606000       0.81096000       0.34673000
    91  C          0.97394000       0.31096000       0.65327000
    92  C          0.02606000       0.31096000       0.34673000
    93  C          0.52606000       0.18904000       0.34673000
    94  C          0.47394000       0.18904000       0.65327000
    95  C          0.02606000       0.68904000       0.34673000
    96  C          0.97394000       0.68904000       0.65327000
    97  H          0.45046300       0.75178300       0.59885800
    98  H          0.54953700       0.75178300       0.40114200
    99  H          0.95046300       0.25178300       0.59885800
   100  H          0.04953700       0.25178300       0.40114200
   101  H          0.54953700       0.24821700       0.40114200
   102  H          0.45046300       0.24821700       0.59885800
   103  H          0.04953700       0.74821700       0.40114200
   104  H          0.95046300       0.74821700       0.59885800
   105  H          0.53231400       0.82125200       0.66067300
   106  H          0.46768600       0.82125200       0.33932700
   107  H          0.03231400       0.32125200       0.66067300
   108  H          0.96768600       0.32125200       0.33932700
   109  H          0.46768600       0.17874800       0.33932700
   110  H          0.53231400       0.17874800       0.66067300
   111  H          0.96768600       0.67874800       0.33932700
   112  H          0.03231400       0.67874800       0.66067300
   113  H          0.44458700       0.88361600       0.63087400
   114  H          0.55541300       0.88361600       0.36912600
   115  H          0.94458700       0.38361600       0.63087400
   116  H          0.05541300       0.38361600       0.36912600
   117  H          0.55541300       0.11638400       0.36912600
   118  H          0.44458700       0.11638400       0.63087400
   119  H          0.05541300       0.61638400       0.36912600
   120  H          0.94458700       0.61638400       0.63087400
   121  C          0.27084000       0.38626000       0.62045000
   122  C          0.72916000       0.38626000       0.37955000
   123  C          0.77084000       0.88626000       0.62045000
   124  C          0.22916000       0.88626000       0.37955000
   125  C          0.72916000       0.61374000       0.37955000
   126  C          0.27084000       0.61374000       0.62045000
   127  C          0.22916000       0.11374000       0.37955000
   128  C          0.77084000       0.11374000       0.62045000
   129  H          0.23098000       0.40119900       0.54856000
   130  H          0.76902000       0.40119900       0.45144000
   131  H          0.73098000       0.90119900       0.54856000
   132  H          0.26902000       0.90119900       0.45144000
   133  H          0.76902000       0.59880100       0.45144000
   134  H          0.23098000       0.59880100       0.54856000
   135  H          0.26902000       0.09880100       0.45144000
   136  H          0.73098000       0.09880100       0.54856000
   137  H          0.31281000       0.33192100       0.61134900
   138  H          0.68719000       0.33192100       0.38865100
   139  H          0.81281000       0.83192100       0.61134900
   140  H          0.18719000       0.83192100       0.38865100
   141  H          0.68719000       0.66807900       0.38865100
   142  H          0.31281000       0.66807900       0.61134900
   143  H          0.18719000       0.16807900       0.38865100
   144  H          0.81281000       0.16807900       0.61134900
   145  C          0.61764000       0.66866000       0.98116000
   146  C          0.38236000       0.66866000       0.01884000
   147  C          0.11764000       0.16866000       0.98116000
   148  C          0.88236000       0.16866000       0.01884000
   149  C          0.38236000       0.33134000       0.01884000
   150  C          0.61764000       0.33134000       0.98116000
   151  C          0.88236000       0.83134000       0.01884000
   152  C          0.11764000       0.83134000       0.98116000
   153  H          0.59815800       0.74241000       0.00026900
   154  H          0.40184200       0.74241000      -0.00026900
   155  H          0.09815800       0.24241000       0.00026900
   156  H          0.90184200       0.24241000      -0.00026900
   157  H          0.40184200       0.25759000      -0.00026900
   158  H          0.59815800       0.25759000       0.00026900
   159  H          0.90184200       0.75759000      -0.00026900
   160  H          0.09815800       0.75759000       0.00026900
   161  H          0.67710100       0.66211100       0.01581000
   162  H          0.32289900       0.66211100       0.98419000
   163  H          0.17710100       0.16211100       0.01581000
   164  H          0.82289900       0.16211100       0.98419000
   165  H          0.32289900       0.33788900       0.98419000
   166  H          0.67710100       0.33788900       0.01581000
   167  H          0.82289900       0.83788900       0.98419000
   168  H          0.17710100       0.83788900       0.01581000
   169  H          0.58952200       0.60564900       0.00546000
   170  H          0.41047800       0.60564900      -0.00546000
   171  H          0.08952200       0.10564900       0.00546000
   172  H          0.91047800       0.10564900      -0.00546000
   173  H          0.41047800       0.39435100      -0.00546000
   174  H          0.58952200       0.39435100       0.00546000
   175  H          0.91047800       0.89435100      -0.00546000
   176  H          0.08952200       0.89435100       0.00546000
   177  C          0.22737000       0.33351000       0.69021000
   178  C          0.77263000       0.33351000       0.30979000
   179  C          0.72737000       0.83351000       0.69021000
   180  C          0.27263000       0.83351000       0.30979000
   181  C          0.77263000       0.66649000       0.30979000
   182  C          0.22737000       0.66649000       0.69021000
   183  C          0.27263000       0.16649000       0.30979000
   184  C          0.72737000       0.16649000       0.69021000
   185  H          0.20831000       0.25645500       0.66354100
   186  H          0.79169000       0.25645500       0.33645900
   187  H          0.70831000       0.75645500       0.66354100
   188  H          0.29169000       0.75645500       0.33645900
   189  H          0.79169000       0.74354500       0.33645900
   190  H          0.20831000       0.74354500       0.66354100
   191  H          0.29169000       0.24354500       0.33645900
   192  H          0.70831000       0.24354500       0.66354100
   193  H          0.17987100       0.38125100       0.68968400
   194  H          0.82012900       0.38125100       0.31031600
   195  H          0.67987100       0.88125100       0.68968400
   196  H          0.32012900       0.88125100       0.31031600
   197  H          0.82012900       0.61874900       0.31031600
   198  H          0.17987100       0.61874900       0.68968400
   199  H          0.32012900       0.11874900       0.31031600
   200  H          0.67987100       0.11874900       0.68968400
   201  H          0.26487900       0.32795400       0.76380300
   202  H          0.73512100       0.32795400       0.23619700
   203  H          0.76487900       0.82795400       0.76380300
   204  H          0.23512100       0.82795400       0.23619700
   205  H          0.73512100       0.67204600       0.23619700
   206  H          0.26487900       0.67204600       0.76380300
   207  H          0.23512100       0.17204600       0.23619700
   208  H          0.76487900       0.17204600       0.76380300
