data_DOVLEH
_symmetry_space_group_name_H-M    'P1'
_symmetry_Int_Tables_number       1
loop_
_symmetry_equiv_pos_site_id
_symmetry_equiv_pos_as_xyz
1 x,y,z
_cell_length_a                   8.06759
_cell_length_b                   8.09349
_cell_length_c                   15.563118
_cell_angle_alpha                83.151214
_cell_angle_beta                 76.158214
_cell_angle_gamma                76.004214
loop_
_atom_site_label
_atom_site_type_symbol
_atom_site_fract_x
_atom_site_fract_y
_atom_site_fract_z
     1  N          0.05941130       0.80016110       0.06980600
     2  N          0.94058870       0.19983890       0.93019400
     3  C          0.16792160       0.80616140       0.12248700
     4  C          0.83207840       0.19383860       0.87751300
     5  H          0.24730000       0.87990000       0.10570000
     6  H          0.75270000       0.12010000       0.89430000
     7  C          0.16419160       0.70647150       0.19994800
     8  C          0.83580840       0.29352850       0.80005200
     9  H          0.23890000       0.71230000       0.23780000
    10  H          0.76110000       0.28770000       0.76220000
    11  C          0.05113160       0.59765150       0.22248800
    12  C          0.94886840       0.40234850       0.77751200
    13  H          0.04660000       0.52840000       0.27640000
    14  H          0.95340000       0.47160000       0.72360000
    15  C          0.94435840       0.58924160       0.16659800
    16  C          0.05564160       0.41075840       0.83340200
    17  H          0.86810000       0.51230000       0.18090000
    18  H          0.13190000       0.48770000       0.81910000
    19  C          0.94948840       0.69326150       0.09001800
    20  C          0.05051160       0.30673850       0.90998200
    21  H          0.87550000       0.68970000       0.05140000
    22  H          0.12450000       0.31030000       0.94860000
    23  C          0.06095170       0.91595140       0.98912300
    24  C          0.93904830       0.08404860       0.01087700
    25  H          0.02430000       0.86470000       0.94400000
    26  H          0.97570000       0.13530000       0.05600000
    27  H          0.18110000       0.93290000       0.96420000
    28  H          0.81890000       0.06710000       0.03580000
    29  N          0.31953150       0.14407140       0.04621700
    30  N          0.68046850       0.85592860       0.95378300
    31  N          0.68469140       0.45622130       0.05961700
    32  N          0.31530860       0.54377870       0.94038300
    33  N          0.25562140       0.51402140       0.60504700
    34  N          0.74437860       0.48597860       0.39495300
    35  N          0.91878870       0.18317140       0.59120700
    36  N          0.08121130       0.81682860       0.40879300
    37  C          0.37984150       0.20956140       0.08856700
    38  C          0.62015850       0.79043860       0.91143300
    39  C          0.45144140       0.29200130       0.14231700
    40  C          0.54855860       0.70799870       0.85768300
    41  C          0.57975140       0.38402140       0.09686700
    42  C          0.42024860       0.61597860       0.90313300
    43  C          0.39070130       0.28961130       0.23452700
    44  C          0.60929870       0.71038870       0.76547300
    45  C          0.45133130       0.38557130       0.28740700
    46  C          0.54866870       0.61442870       0.71259300
    47  H          0.54310000       0.44210000       0.26050000
    48  H          0.45690000       0.55790000       0.73950000
    49  C          0.37981130       0.39706130       0.37521700
    50  C          0.62018870       0.60293870       0.62478300
    51  H          0.42070000       0.46350000       0.40860000
    52  H          0.57930000       0.53650000       0.59140000
    53  C          0.24408130       0.31121120       0.41845700
    54  C          0.75591870       0.68878880       0.58154300
    55  C          0.18792130       0.20955130       0.36637700
    56  C          0.81207870       0.79044870       0.63362300
    57  H          0.10040000       0.14820000       0.39390000
    58  H          0.89960000       0.85180000       0.60610000
    59  C          0.25814130       0.19985130       0.27824700
    60  C          0.74185870       0.80014870       0.72175300
    61  H          0.21850000       0.13220000       0.24500000
    62  H          0.78150000       0.86780000       0.75500000
    63  C          0.21922140       0.43038130       0.56086700
    64  C          0.78077860       0.56961870       0.43913300
    65  C          0.16852130       0.32675130       0.50851700
    66  C          0.83147870       0.67324870       0.49148300
    67  C          0.03094140       0.24582130       0.55334700
    68  C          0.96905860       0.75417870       0.44665300
    69  N          0.52878140       0.80723860       0.22068700
    70  N          0.47121860       0.19276140       0.77931300
    71  N          0.88219140       0.12541140       0.22820700
    72  N          0.11780860       0.87458860       0.77179300
    73  C          0.57680140       0.88272860       0.26404700
    74  C          0.42319860       0.11727140       0.73595300
    75  C          0.63800140       0.97868870       0.31615700
    76  C          0.36199860       0.02131130       0.68384300
    77  C          0.77355140       0.06083140       0.26885700
    78  C          0.22644860       0.93916860       0.73114300
    79  C          0.57130130      -0.01199120       0.40761600
    80  C          0.42869870       0.01199120       0.59238400
    81  C          0.63136130       0.08774120       0.45894700
    82  C          0.36863870       0.91225880       0.54105300
    83  H          0.71990000       0.14740000       0.43070000
    84  H          0.28010000       0.85260000       0.56930000
    85  C          0.43646130       0.90166880       0.45264700
    86  C          0.56353870       0.09833120       0.54735300
    87  H          0.39350000       0.83560000       0.42000000
    88  H          0.60650000       0.16440000       0.58000000
