data_DOWMEJ
_symmetry_space_group_name_H-M    'P1'
_symmetry_Int_Tables_number       1
loop_
_symmetry_equiv_pos_site_id
_symmetry_equiv_pos_as_xyz
1 x,y,z
_cell_length_a                   7.87699
_cell_length_b                   9.409914
_cell_length_c                   14.066913
_cell_angle_alpha                76.34211
_cell_angle_beta                 80.5329
_cell_angle_gamma                81.62611
loop_
_atom_site_label
_atom_site_type_symbol
_atom_site_fract_x
_atom_site_fract_y
_atom_site_fract_z
     1  I          0.69031500       0.83509400       0.21931300
     2  I          0.30968500       0.16490600       0.78068700
     3  I          0.75212500       0.13532400       0.19242300
     4  I          0.24787500       0.86467600       0.80757700
     5  I          0.64130600       0.52332400       0.24883400
     6  I          0.35869400       0.47667600       0.75116600
     7  I          0.18167600       0.58610400       0.05944300
     8  I          0.81832400       0.41389600       0.94055700
     9  S          0.23632000       0.06275170       0.04986120
    10  S          0.76368000       0.93724830       0.95013880
    11  N          0.26625000       0.12504000       0.21543000
    12  N          0.73375000       0.87496000       0.78457000
    13  C          0.30006000       0.26515000       0.14204000
    14  C          0.69994000       0.73485000       0.85796000
    15  H          0.39840000       0.30450000       0.15730000
    16  H          0.60160000       0.69550000       0.84270000
    17  C          0.27036000       0.10625000       0.31644000
    18  C          0.72964000       0.89375000       0.68356000
    19  C          0.32077000       0.21346000       0.35514000
    20  C          0.67923000       0.78654000       0.64486000
    21  H          0.35150000       0.30150000       0.31410000
    22  H          0.64850000       0.69850000       0.68590000
    23  C          0.22608000       0.95407000       0.47985000
    24  C          0.77392000       0.04593000       0.52015000
    25  H          0.19240000       0.86800000       0.52240000
    26  H          0.80760000       0.13200000       0.47760000
    27  C          0.13747000       0.37425000       0.15154000
    28  C          0.86253000       0.62575000       0.84846000
    29  H          0.10670000       0.38280000       0.21970000
    30  H          0.89330000       0.61720000       0.78030000
    31  H          0.04170000       0.33840000       0.13210000
    32  H          0.95830000       0.66160000       0.86790000
    33  C          0.34688000       0.22246000       0.04234000
    34  C          0.65312000       0.77754000       0.95766000
    35  H          0.47110000       0.19870000       0.02820000
    36  H          0.52890000       0.80130000       0.97180000
    37  H          0.30940000       0.30290000      -0.00980000
    38  H          0.69060000       0.69710000       0.00980000
    39  C          0.17627000       0.88876000       0.23695000
    40  C          0.82373000       0.11124000       0.76305000
    41  H          0.14490000       0.81680000       0.20980000
    42  H          0.85510000       0.18320000       0.79020000
    43  C          0.22197000       0.97286000       0.37784000
    44  C          0.77803000       0.02714000       0.62216000
    45  C          0.22426000       0.02045000       0.17644000
    46  C          0.77574000       0.97955000       0.82356000
    47  C          0.17547000       0.86616000       0.33585000
    48  C          0.82453000       0.13384000       0.66415000
    49  H          0.14340000       0.77810000       0.37630000
    50  H          0.85660000       0.22190000       0.62370000
    51  C          0.27719000       0.05688000       0.51695000
    52  C          0.72281000       0.94312000       0.48305000
    53  H          0.28090000       0.04090000       0.58440000
    54  H          0.71910000       0.95910000       0.41560000
    55  C          0.32438000       0.18727000       0.45475000
    56  C          0.67562000       0.81273000       0.54525000
    57  H          0.35910000       0.25810000       0.48130000
    58  H          0.64090000       0.74190000       0.51870000
    59  I          0.90261700       0.49725400       0.42732300
    60  I          0.09738300       0.50274600       0.57267700
