data_DOXTIT
_symmetry_space_group_name_H-M    'P1'
_symmetry_Int_Tables_number       1
loop_
_symmetry_equiv_pos_site_id
_symmetry_equiv_pos_as_xyz
1 x,y,z
_cell_length_a                   11.568
_cell_length_b                   13.202
_cell_length_c                   7.236
_cell_angle_alpha                88.78
_cell_angle_beta                 86.91
_cell_angle_gamma                76.66
loop_
_atom_site_label
_atom_site_type_symbol
_atom_site_fract_x
_atom_site_fract_y
_atom_site_fract_z
     1  S          0.61194000       0.71814000       0.48378000
     2  S          0.38806000       0.28186000       0.51622000
     3  C          0.46993000       0.78091000       0.55263000
     4  C          0.53007000       0.21909000       0.44737000
     5  C          0.37712000       0.73559000       0.58687000
     6  C          0.62288000       0.26441000       0.41313000
     7  C          0.38783000       0.62440000       0.57069000
     8  C          0.61217000       0.37560000       0.42931000
     9  C          0.49647000       0.55492000       0.50883000
    10  C          0.50353000       0.44508000       0.49117000
    11  C          0.60124000       0.59048000       0.46007000
    12  C          0.39876000       0.40952000       0.53993000
    13  C          0.70419000       0.52258000       0.39300000
    14  C          0.29581000       0.47742000       0.60700000
    15  C          0.29082000       0.58166000       0.62184000
    16  C          0.70918000       0.41834000       0.37816000
    17  C          0.26104000       0.80745000       0.64277000
    18  C          0.73896000       0.19255000       0.35723000
    19  C          0.25788000       0.87566000       0.78644000
    20  C          0.74212000       0.12434000       0.21356000
    21  C          0.13288000       0.94684000       0.83653000
    22  C          0.86712000       0.05316000       0.16347000
    23  C          0.05117000       0.94838000       0.74611000
    24  C          0.94883000       0.05162000       0.25389000
    25  C          0.05391000       0.88022000       0.60517000
    26  C          0.94609000       0.11978000       0.39483000
    27  C          0.15815000       0.80975000       0.55285000
    28  C          0.84185000       0.19025000       0.44715000
    29  H          0.77027000       0.54709000       0.35170000
    30  H          0.22973000       0.45291000       0.64830000
    31  H          0.22417000       0.61929000       0.67633000
    32  H          0.77583000       0.38071000       0.32367000
    33  H          0.33527000       0.87387000       0.84572000
    34  H          0.66473000       0.12613000       0.15428000
    35  H          0.16081000      -0.00461000       0.95684000
    36  H          0.83919000       0.00461000       0.04316000
    37  H          0.97651000      -0.00471000       0.77543000
    38  H          0.02349000       0.00471000       0.22457000
    39  H          0.98885000       0.88163000       0.55449000
    40  H          0.01115000       0.11837000       0.44551000
    41  H          0.16392000       0.76783000       0.44347000
    42  H          0.83608000       0.23217000       0.55653000
    43  H          0.45775000       0.85165000       0.65384000
    44  H          0.54225000       0.14835000       0.34616000
    45  S          0.32403000       0.32200000       0.02364000
    46  S          0.67597000       0.67800000       0.97636000
    47  C          0.21160000       0.42902000       0.08136000
    48  C          0.78840000       0.57098000       0.91864000
    49  C          0.22319000       0.52767000       0.10032000
    50  C          0.77681000       0.47233000       0.89968000
    51  C          0.33701000       0.55752000       0.07409000
    52  C          0.66299000       0.44248000       0.92591000
    53  C          0.44548000       0.48360000       0.01678000
    54  C          0.55452000       0.51640000      -0.01678000
    55  C          0.44762000       0.37662000      -0.01269000
    56  C          0.55238000       0.62338000       0.01269000
    57  C          0.55069000       0.30806000       0.92432000
    58  C          0.44931000       0.69194000       0.07568000
    59  C          0.34385000       0.65949000       0.10381000
    60  C          0.65615000       0.34051000       0.89619000
    61  C          0.11169000       0.60731000       0.15134000
    62  C          0.88831000       0.39269000       0.84866000
    63  C          0.06665000       0.69082000       0.03521000
    64  C          0.93335000       0.30918000       0.96479000
    65  C          0.96106000       0.76157000       0.08257000
    66  C          0.03894000       0.23843000       0.91743000
    67  C          0.90095000       0.75251000       0.25098000
    68  C          0.09905000       0.24749000       0.74902000
    69  C          0.94562000       0.67079000       0.36730000
    70  C          0.05438000       0.32921000       0.63270000
    71  C          0.04891000       0.59849000       0.31785000
    72  C          0.95109000       0.40151000       0.68215000
    73  H          0.13498000       0.41454000       0.09213000
    74  H          0.86502000       0.58546000       0.90787000
    75  H          0.27222000       0.70885000       0.12387000
    76  H          0.72778000       0.29115000       0.87613000
    77  H          0.10763000       0.70145000       0.93324000
    78  H          0.89237000       0.29855000       0.06676000
    79  H          0.92842000       0.82031000      -0.00174000
    80  H          0.07158000       0.17969000       0.00174000
    81  H          0.83310000       0.80160000       0.30351000
    82  H          0.16690000       0.19840000       0.69649000
    83  H          0.90464000       0.67081000       0.47395000
    84  H          0.09536000       0.32919000       0.52605000
    85  H          0.07886000       0.54192000       0.40278000
    86  H          0.92114000       0.45808000       0.59722000
    87  H          0.54322000       0.23996000       0.88676000
    88  H          0.45678000       0.76004000       0.11324000
    89  I          0.50000000      -0.00000000       0.00000000
    90  I          0.68682000       0.96280000       0.70309000
    91  I          0.31318000       0.03720000       0.29691000
