data_DOXXAT
_symmetry_space_group_name_H-M    'P1'
_symmetry_Int_Tables_number       1
loop_
_symmetry_equiv_pos_site_id
_symmetry_equiv_pos_as_xyz
1 x,y,z
_cell_length_a                   10.826816
_cell_length_b                   11.023417
_cell_length_c                   11.464517
_cell_angle_alpha                64.2724
_cell_angle_beta                 65.5475
_cell_angle_gamma                69.7935
loop_
_atom_site_label
_atom_site_type_symbol
_atom_site_fract_x
_atom_site_fract_y
_atom_site_fract_z
     1  O          0.60405850       0.09864170       0.71710170
     2  O          0.39594150       0.90135830       0.28289830
     3  H          0.52619600       0.11776500       0.76800000
     4  H          0.47380400       0.88223500       0.23200000
     5  O          0.14346160       0.24542000       0.55627190
     6  O          0.85653840       0.75458000       0.44372810
     7  H          0.22250600       0.23107300       0.50519500
     8  H          0.77749400       0.76892700       0.49480500
     9  O          0.10200160       0.14212000       0.45228190
    10  O          0.89799840       0.85788000       0.54771810
    11  C          0.73182810       0.32362000       0.78098190
    12  C          0.26817190       0.67638000       0.21901810
    13  C          0.86938000       0.30522000       0.69922000
    14  C          0.13062000       0.69478000       0.30078000
    15  H          0.93029900       0.35011100       0.69551100
    16  H          0.06970100       0.64988900       0.30448900
    17  C          0.64305810       0.25442000       0.78722000
    18  C          0.35694190       0.74558000       0.21278000
    19  H          0.55148800       0.26554300       0.84278100
    20  H          0.44851200       0.73445700       0.15721900
    21  C          0.82538000       0.15272000       0.62842000
    22  C          0.17462000       0.84728000       0.37158000
    23  H          0.85641400       0.09687700       0.57589300
    24  H          0.14358600       0.90312300       0.42410700
    25  C          0.91530810       0.21982000       0.62352000
    26  C          0.08469190       0.78018000       0.37648000
    27  C          0.68871810       0.16872000       0.71182000
    28  C          0.31128190       0.83128000       0.28818000
    29  C          0.67948000       0.41902000       0.86112000
    30  C          0.32052000       0.58098000       0.13888000
    31  C          0.06252000       0.19872000       0.53482000
    32  C          0.93748000       0.80128000       0.46518000
    33  O          0.54804860       0.43817170       0.92020170
    34  O          0.45195140       0.56182830       0.07979830
    35  O          0.75916850       0.47064180       0.86757170
    36  O          0.24083150       0.52935820       0.13242830
    37  N          0.10298190       0.50425190       0.87789190
    38  N          0.89701810       0.49574810       0.12210810
    39  C          0.32232000       0.50372000       0.63862000
    40  C          0.67768000       0.49628000       0.36138000
    41  C          0.34122000       0.50682000       0.75032000
    42  C          0.65878000       0.49318000       0.24968000
    43  H          0.42801500       0.50880500       0.74631500
    44  H          0.57198500       0.49119500       0.25368500
    45  C          0.23102000       0.50682000       0.86562000
    46  C          0.76898000       0.49318000       0.13438000
    47  H          0.24539000       0.50874800       0.93924800
    48  H          0.75461000       0.49125200       0.06075200
    49  C          0.18772000       0.50282000       0.65272000
    50  C          0.81228000       0.49718000       0.34728000
    51  H          0.16970200       0.50191700       0.58055100
    52  H          0.83029800       0.49808300       0.41944900
    53  C          0.43392000       0.49992000       0.51332000
    54  C          0.56608000       0.50008000       0.48668000
    55  H          0.41107700       0.49714200       0.44481500
    56  H          0.58892300       0.50285800       0.55518500
    57  C          0.08272000       0.50322000       0.77143000
    58  C          0.91728000       0.49678000       0.22857000
    59  H          0.99431600       0.50277200       0.77804900
    60  H          0.00568400       0.49722800       0.22195100
    61  N          0.59919180       0.80032000       0.58802000
    62  N          0.40080820       0.19968000       0.41198000
    63  N          0.66008810       0.86242000       0.10412000
    64  N          0.33991190       0.13758000       0.89588000
    65  C          0.93038000       0.85592000       0.92172000
    66  C          0.06962000       0.14408000       0.07828000
    67  C          0.32372000       0.83992000       0.74912000
    68  C          0.67628000       0.16008000       0.25088000
    69  C          0.35882000       0.84923000       0.61523000
    70  C          0.64118000       0.15077000       0.38477000
    71  H          0.29020000       0.86922300       0.57693400
    72  H          0.70980000       0.13077700       0.42306600
    73  C          0.49672000       0.82843000       0.53963000
    74  C          0.50328000       0.17157000       0.46037000
    75  H          0.51906700       0.83432300       0.44995900
    76  H          0.48093300       0.16567700       0.55004100
    77  C          0.82348000       0.85472000       0.88792000
    78  C          0.17652000       0.14528000       0.11208000
    79  H          0.83951800       0.85105500       0.80315700
    80  H          0.16048200       0.14894500       0.19684300
    81  C          0.07062000       0.85492000       0.82153000
    82  C          0.92938000       0.14508000       0.17847000
    83  H          0.08033700       0.85927600       0.73534900
    84  H          0.91966300       0.14072400       0.26465100
    85  C          0.76358000       0.86093000       0.13863000
    86  C          0.23642000       0.13907000       0.86137000
    87  H          0.74488400       0.86179900       0.22513000
    88  H          0.25511600       0.13820100       0.77487000
    89  C          0.18092000       0.84842000       0.84363000
    90  C          0.81908000       0.15158000       0.15637000
    91  H          0.16889400       0.84920300       0.92839800
    92  H          0.83110600       0.15079700       0.07160200
    93  C          0.69218000       0.85893000       0.98003000
    94  C          0.30782000       0.14107000       0.01997000
    95  H          0.62121200       0.85933200       0.95404100
    96  H          0.37878800       0.14066800       0.04595900
    97  C          0.43042000       0.81563000       0.79673000
    98  C          0.56958000       0.18437000       0.20327000
    99  H          0.41117100       0.81227900       0.88487600
   100  H          0.58882900       0.18772100       0.11512400
   101  C          0.89888000       0.85803000       0.05113000
   102  C          0.10112000       0.14197000       0.94887000
   103  H          0.96829200       0.85742900       0.07924500
   104  H          0.03170800       0.14257100       0.92075500
   105  C          0.56552000       0.79623000       0.71483000
   106  C          0.43448000       0.20377000       0.28517000
   107  H          0.63595200       0.77958800       0.74942700
   108  H          0.36404800       0.22041200       0.25057300
