data_DTHIOF
_symmetry_space_group_name_H-M    'P1'
_symmetry_Int_Tables_number       1
loop_
_symmetry_equiv_pos_site_id
_symmetry_equiv_pos_as_xyz
1 x,y,z
_cell_length_a                   6.56
_cell_length_b                   21.06
_cell_length_c                   4.47
_cell_angle_alpha                90.0
_cell_angle_beta                 104.4
_cell_angle_gamma                90.0
loop_
_atom_site_label
_atom_site_type_symbol
_atom_site_fract_x
_atom_site_fract_y
_atom_site_fract_z
     1  C          0.34400000       0.25000000       0.96300000
     2  C          0.65600000       0.75000000       0.03700000
     3  I          0.52140000       0.33390000       0.17630000
     4  I          0.47860000       0.83390000       0.82370000
     5  I          0.47860000       0.66610000       0.82370000
     6  I          0.52140000       0.16610000       0.17630000
     7  I          0.04060000       0.25000000      -0.00390000
     8  I          0.95940000       0.75000000       0.00390000
     9  C          0.77500000       0.52870000       0.38400000
    10  C          0.22500000       0.02870000       0.61600000
    11  C          0.22500000       0.47130000       0.61600000
    12  C          0.77500000       0.97130000       0.38400000
    13  C          0.94300000       0.57330000       0.49200000
    14  C          0.05700000       0.07330000       0.50800000
    15  C          0.05700000       0.42670000       0.50800000
    16  C          0.94300000       0.92670000       0.49200000
    17  S          0.80500000       0.45290000       0.55100000
    18  S          0.19500000       0.95290000       0.44900000
    19  S          0.19500000       0.54710000       0.44900000
    20  S          0.80500000       0.04710000       0.55100000
