data_DUCKET
_symmetry_space_group_name_H-M    'P1'
_symmetry_Int_Tables_number       1
loop_
_symmetry_equiv_pos_site_id
_symmetry_equiv_pos_as_xyz
1 x,y,z
_cell_length_a                   10.9252
_cell_length_b                   16.6373
_cell_length_c                   15.1853
_cell_angle_alpha                90.0
_cell_angle_beta                 90.333
_cell_angle_gamma                90.0
loop_
_atom_site_label
_atom_site_type_symbol
_atom_site_fract_x
_atom_site_fract_y
_atom_site_fract_z
     1  C         -0.00896000       0.15974000       0.53314000
     2  C          0.00896000       0.65974000       0.96686000
     3  C          0.00896000       0.84026000       0.46686000
     4  C         -0.00896000       0.34026000       0.03314000
     5  H          0.96220000       0.14830000       0.47390000
     6  H          0.03780000       0.64830000       0.02610000
     7  H          0.03780000       0.85170000       0.52610000
     8  H          0.96220000       0.35170000       0.97390000
     9  H          0.92050000       0.16490000       0.57110000
    10  H          0.07950000       0.66490000       0.92890000
    11  H          0.07950000       0.83510000       0.42890000
    12  H          0.92050000       0.33510000       0.07110000
    13  C          0.06967000       0.09384000       0.56445000
    14  C          0.93033000       0.59384000       0.93555000
    15  C          0.93033000       0.90616000       0.43555000
    16  C          0.06967000       0.40616000       0.06445000
    17  H          0.10580000       0.10790000       0.62080000
    18  H          0.89420000       0.60790000       0.87920000
    19  H          0.89420000       0.89210000       0.37920000
    20  H          0.10580000       0.39210000       0.12080000
    21  H          0.02110000       0.04550000       0.57220000
    22  H          0.97890000       0.54550000       0.92780000
    23  H          0.97890000       0.95450000       0.42780000
    24  H          0.02110000       0.45450000       0.07220000
    25  O          0.16174000       0.07983000       0.50273000
    26  O          0.83826000       0.57983000      -0.00273000
    27  O          0.83826000       0.92017000       0.49727000
    28  O          0.16174000       0.42017000       0.00273000
    29  C          0.24088000       0.01524000       0.52645000
    30  C          0.75912000       0.51524000       0.97355000
    31  C          0.75912000       0.98476000       0.47355000
    32  C          0.24088000       0.48476000       0.02645000
    33  H          0.27820000      -0.00620000       0.47360000
    34  H          0.72180000       0.49380000       0.02640000
    35  H          0.72180000       0.00620000       0.52640000
    36  H          0.27820000       0.50620000       0.97360000
    37  H          0.19270000       0.97270000       0.55290000
    38  H          0.80730000       0.47270000       0.94710000
    39  H          0.80730000       0.02730000       0.44710000
    40  H          0.19270000       0.52730000       0.05290000
    41  C          0.33788000       0.03994000       0.58865000
    42  C          0.66212000       0.53994000       0.91135000
    43  C          0.66212000       0.96006000       0.41135000
    44  C          0.33788000       0.46006000       0.08865000
    45  H          0.30190000       0.06420000       0.64050000
    46  H          0.69810000       0.56420000       0.85950000
    47  H          0.69810000       0.93580000       0.35950000
    48  H          0.30190000       0.43580000       0.14050000
    49  H          0.38520000      -0.00660000       0.60700000
    50  H          0.61480000       0.49340000       0.89300000
    51  H          0.61480000       0.00660000       0.39300000
    52  H          0.38520000       0.50660000       0.10700000
    53  O          0.41485000       0.09633000       0.54543000
    54  O          0.58515000       0.59633000       0.95457000
    55  O          0.58515000       0.90367000       0.45457000
    56  O          0.41485000       0.40367000       0.04543000
    57  C          0.50648000       0.12885000       0.60055000
    58  C          0.49352000       0.62885000       0.89945000
    59  C          0.49352000       0.87115000       0.39945000
    60  C          0.50648000       0.37115000       0.10055000
    61  H          0.55610000       0.08580000       0.62490000
    62  H          0.44390000       0.58580000       0.87510000
    63  H          0.44390000       0.91420000       0.37510000
    64  H          0.55610000       0.41420000       0.12490000
    65  H          0.46900000       0.15760000       0.64890000
    66  H          0.53100000       0.65760000       0.85110000
    67  H          0.53100000       0.84240000       0.35110000
    68  H          0.46900000       0.34240000       0.14890000
    69  C          0.58486000       0.18455000       0.54875000
    70  C          0.41514000       0.68455000       0.95125000
    71  C          0.41514000       0.81545000       0.45125000
    72  C          0.58486000       0.31545000       0.04875000
    73  H          0.65280000       0.20270000       0.58490000
    74  H          0.34720000       0.70270000       0.91510000
    75  H          0.34720000       0.79730000       0.41510000
    76  H          0.65280000       0.29730000       0.08490000
    77  H          0.61780000       0.15650000       0.49820000
    78  H          0.38220000       0.65650000       0.00180000
    79  H          0.38220000       0.84350000       0.50180000
    80  H          0.61780000       0.34350000      -0.00180000
    81  O          0.51544000       0.25123000       0.52023000
    82  O          0.48456000       0.75123000       0.97977000
    83  O          0.48456000       0.74877000       0.47977000
    84  O          0.51544000       0.24877000       0.02023000
    85  C          0.58347000       0.30786000       0.46986000
    86  C          0.41653000       0.80786000       0.03014000
    87  C          0.41653000       0.69214000       0.53014000
    88  C          0.58347000       0.19214000       0.96986000
    89  H          0.60800000       0.28360000       0.41460000
    90  H          0.39200000       0.78360000       0.08540000
    91  H          0.39200000       0.71640000       0.58540000
    92  H          0.60800000       0.21640000       0.91460000
    93  H          0.65680000       0.32330000       0.50190000
    94  H          0.34320000       0.82330000      -0.00190000
    95  H          0.34320000       0.67670000       0.49810000
    96  H          0.65680000       0.17670000       0.00190000
    97  C          0.50738000       0.37985000       0.45236000
    98  C          0.49262000       0.87985000       0.04764000
    99  C          0.49262000       0.62015000       0.54764000
   100  C          0.50738000       0.12015000       0.95236000
   101  H          0.47690000       0.40070000       0.50760000
   102  H          0.52310000       0.90070000      -0.00760000
   103  H          0.52310000       0.59930000       0.49240000
   104  H          0.47690000       0.09930000       0.00760000
   105  H          0.55750000       0.42100000       0.42540000
   106  H          0.44250000       0.92100000       0.07460000
   107  H          0.44250000       0.57900000       0.57460000
   108  H          0.55750000       0.07900000       0.92540000
   109  O          0.40785000       0.36213000       0.39633000
   110  O          0.59215000       0.86213000       0.10367000
   111  O          0.59215000       0.63787000       0.60367000
   112  O          0.40785000       0.13787000       0.89633000
   113  C          0.32818000       0.42904000       0.38355000
   114  C          0.67182000       0.92904000       0.11645000
   115  C          0.67182000       0.57096000       0.61645000
   116  C          0.32818000       0.07096000       0.88355000
   117  H          0.28690000       0.42340000       0.32710000
   118  H          0.71310000       0.92340000       0.17290000
   119  H          0.71310000       0.57660000       0.67290000
   120  H          0.28690000       0.07660000       0.82710000
   121  H          0.37660000       0.47790000       0.38150000
   122  H          0.62340000       0.97790000       0.11850000
   123  H          0.62340000       0.52210000       0.61850000
   124  H          0.37660000       0.02210000       0.88150000
   125  C          0.23528000       0.43694000       0.45335000
   126  C          0.76472000       0.93694000       0.04665000
   127  C          0.76472000       0.56306000       0.54665000
   128  C          0.23528000       0.06306000       0.95335000
   129  H          0.27530000       0.44210000       0.51020000
   130  H          0.72470000       0.94210000       0.98980000
   131  H          0.72470000       0.55790000       0.48980000
   132  H          0.27530000       0.05790000       0.01020000
   133  H          0.18640000       0.48480000       0.44320000
   134  H          0.81360000       0.98480000       0.05680000
   135  H          0.81360000       0.51520000       0.55680000
   136  H          0.18640000       0.01520000       0.94320000
   137  O          0.16024000       0.36963000       0.45313000
   138  O          0.83976000       0.86963000       0.04687000
   139  O          0.83976000       0.63037000       0.54687000
   140  O          0.16024000       0.13037000       0.95313000
   141  C          0.06476000       0.37284000       0.51554000
   142  C          0.93524000       0.87284000       0.98446000
   143  C          0.93524000       0.62716000       0.48446000
   144  C          0.06476000       0.12716000       0.01554000
   145  H          0.01400000       0.41950000       0.50410000
   146  H          0.98600000       0.91950000      -0.00410000
   147  H          0.98600000       0.58050000       0.49590000
   148  H          0.01400000       0.08050000       0.00410000
   149  H          0.09940000       0.37810000       0.57420000
   150  H          0.90060000       0.87810000       0.92580000
   151  H          0.90060000       0.62190000       0.42580000
   152  H          0.09940000       0.12190000       0.07420000
   153  C         -0.01116000       0.29984000       0.51124000
   154  C          0.01116000       0.79984000       0.98876000
   155  C          0.01116000       0.70016000       0.48876000
   156  C         -0.01116000       0.20016000       0.01124000
   157  H          0.92070000       0.30470000       0.55150000
   158  H          0.07930000       0.80470000       0.94850000
   159  H          0.07930000       0.69530000       0.44850000
   160  H          0.92070000       0.19530000       0.05150000
   161  H          0.95620000       0.29330000       0.45210000
   162  H          0.04380000       0.79330000       0.04790000
   163  H          0.04380000       0.70670000       0.54790000
   164  H          0.95620000       0.20670000       0.95210000
   165  O          0.05953000       0.23252000       0.53372000
   166  O          0.94047000       0.73252000       0.96628000
   167  O          0.94047000       0.76748000       0.46628000
   168  O          0.05953000       0.26748000       0.03372000
   169  C          0.41165000       0.17914000       0.26143000
   170  C          0.58835000       0.67914000       0.23857000
   171  C          0.58835000       0.82086000       0.73857000
   172  C          0.41165000       0.32086000       0.76143000
   173  H          0.44880000       0.23230000       0.26830000
   174  H          0.55120000       0.73230000       0.23170000
   175  H          0.55120000       0.76770000       0.73170000
   176  H          0.44880000       0.26770000       0.76830000
   177  C          0.30015000       0.18724000       0.20073000
   178  C          0.69985000       0.68724000       0.29927000
   179  C          0.69985000       0.81276000       0.79927000
   180  C          0.30015000       0.31276000       0.70073000
   181  H          0.32510000       0.21040000       0.14500000
   182  H          0.67490000       0.71040000       0.35500000
   183  H          0.67490000       0.78960000       0.85500000
   184  H          0.32510000       0.28960000       0.64500000
   185  H          0.26620000       0.13430000       0.18900000
   186  H          0.73380000       0.63430000       0.31100000
   187  H          0.73380000       0.86570000       0.81100000
   188  H          0.26620000       0.36570000       0.68900000
   189  C          0.20295000       0.23984000       0.24194000
   190  C          0.79705000       0.73984000       0.25806000
   191  C          0.79705000       0.76016000       0.75806000
   192  C          0.20295000       0.26016000       0.74194000
   193  H          0.23360000       0.29430000       0.24710000
   194  H          0.76640000       0.79430000       0.25290000
   195  H          0.76640000       0.70570000       0.75290000
   196  H          0.23360000       0.20570000       0.74710000
   197  H          0.13120000       0.24090000       0.20400000
   198  H          0.86880000       0.74090000       0.29600000
   199  H          0.86880000       0.75910000       0.79600000
   200  H          0.13120000       0.25910000       0.70400000
   201  C          0.16785000       0.20964000       0.33084000
   202  C          0.83215000       0.70964000       0.16916000
   203  C          0.83215000       0.79036000       0.66916000
   204  C          0.16785000       0.29036000       0.83084000
   205  H          0.10890000       0.24610000       0.35670000
   206  H          0.89110000       0.74610000       0.14330000
   207  H          0.89110000       0.75390000       0.64330000
   208  H          0.10890000       0.25390000       0.85670000
   209  H          0.12900000       0.15740000       0.32480000
   210  H          0.87100000       0.65740000       0.17520000
   211  H          0.87100000       0.84260000       0.67520000
   212  H          0.12900000       0.34260000       0.82480000
   213  N          0.27564000       0.20253000       0.39003000
   214  N          0.72436000       0.70253000       0.10997000
   215  N          0.72436000       0.79747000       0.60997000
   216  N          0.27564000       0.29747000       0.89003000
   217  H          0.25190000       0.18190000       0.44200000
   218  H          0.74810000       0.68190000       0.05800000
   219  H          0.74810000       0.81810000       0.55800000
   220  H          0.25190000       0.31810000       0.94200000
   221  H          0.30700000       0.25170000       0.40000000
   222  H          0.69300000       0.75170000       0.10000000
   223  H          0.69300000       0.74830000       0.60000000
   224  H          0.30700000       0.24830000       0.90000000
   225  C          0.37165000       0.15003000       0.35133000
   226  C          0.62835000       0.65003000       0.14867000
   227  C          0.62835000       0.84997000       0.64867000
   228  C          0.37165000       0.34997000       0.85133000
   229  H          0.34030000       0.09570000       0.34610000
   230  H          0.65970000       0.59570000       0.15390000
   231  H          0.65970000       0.90430000       0.65390000
   232  H          0.34030000       0.40430000       0.84610000
   233  H          0.44200000       0.14880000       0.39050000
   234  H          0.55800000       0.64880000       0.10950000
   235  H          0.55800000       0.85120000       0.60950000
   236  H          0.44200000       0.35120000       0.89050000
   237  C          0.50756000       0.12245000       0.22575000
   238  C          0.49244000       0.62245000       0.27425000
   239  C          0.49244000       0.87755000       0.77425000
   240  C          0.50756000       0.37755000       0.72575000
   241  H          0.57560000       0.12010000       0.26580000
   242  H          0.42440000       0.62010000       0.23420000
   243  H          0.42440000       0.87990000       0.73420000
   244  H          0.57560000       0.37990000       0.76580000
   245  H          0.53490000       0.14140000       0.16950000
   246  H          0.46510000       0.64140000       0.33050000
   247  H          0.46510000       0.85860000       0.83050000
   248  H          0.53490000       0.35860000       0.66950000
   249  H          0.47290000       0.06970000       0.21920000
   250  H          0.52710000       0.56970000       0.28080000
   251  H          0.52710000       0.93030000       0.78080000
   252  H          0.47290000       0.43030000       0.71920000
   253  I          0.82564300       0.23621300       0.76071200
   254  I          0.17435700       0.73621300       0.73928800
   255  I          0.17435700       0.76378700       0.23928800
   256  I          0.82564300       0.26378700       0.26071200
   257  I          0.87472400       0.40745300       0.74310300
   258  I          0.12527600       0.90745300       0.75689700
   259  I          0.12527600       0.59254700       0.25689700
   260  I          0.87472400       0.09254700       0.24310300
   261  I          0.79393600       0.06263300       0.77600400
   262  I          0.20606400       0.56263300       0.72399600
   263  I          0.20606400       0.93736700       0.22399600
   264  I          0.79393600       0.43736700       0.27600400
