data_DUCXOP
_symmetry_space_group_name_H-M    'P1'
_symmetry_Int_Tables_number       1
loop_
_symmetry_equiv_pos_site_id
_symmetry_equiv_pos_as_xyz
1 x,y,z
_cell_length_a                   5.37915
_cell_length_b                   21.8222
_cell_length_c                   11.943111
_cell_angle_alpha                90.0
_cell_angle_beta                 91.66601
_cell_angle_gamma                90.0
loop_
_atom_site_label
_atom_site_type_symbol
_atom_site_fract_x
_atom_site_fract_y
_atom_site_fract_z
     1  S          0.47667110       0.17050300       0.20230500
     2  S          0.02332890       0.67050300       0.29769500
     3  S          0.52332890       0.82949700       0.79769500
     4  S         -0.02332890       0.32949700       0.70230500
     5  N          0.80093000       0.21067700       0.06387130
     6  N          0.69907000       0.71067700       0.43612870
     7  N          0.19907000       0.78932300       0.93612870
     8  N          0.30093000       0.28932300       0.56387130
     9  N          0.82173000       0.25824800       0.23838140
    10  N          0.67827000       0.75824800       0.26161860
    11  N          0.17827000       0.74175200       0.76161860
    12  N          0.32173000       0.24175200       0.73838140
    13  H          0.94200000       0.28150000       0.21890000
    14  H          0.55800000       0.78150000       0.28110000
    15  H          0.05800000       0.71850000       0.78110000
    16  H          0.44200000       0.21850000       0.71890000
    17  H          0.76430000       0.26100000       0.30460000
    18  H          0.73570000       0.76100000       0.19540000
    19  H          0.23570000       0.73900000       0.69540000
    20  H          0.26430000       0.23900000       0.80460000
    21  C          0.72484000       0.21790900       0.16608160
    22  C          0.77516000       0.71790900       0.33391840
    23  C          0.27516000       0.78209100       0.83391840
    24  C          0.22484000       0.28209100       0.66608160
    25  C          0.47814000       0.13827900       0.06865170
    26  C          0.02186000       0.63827900       0.43134830
    27  C          0.52186000       0.86172100       0.93134830
    28  C         -0.02186000       0.36172100       0.56865170
    29  C          0.32694000       0.09285100       0.02272190
    30  C          0.17306000       0.59285100       0.47727810
    31  C          0.67306000       0.90714900       0.97727810
    32  C          0.82694000       0.40714900       0.52272190
    33  H          0.20240000       0.07540000       0.06480000
    34  H          0.29760000       0.57540000       0.43520000
    35  H          0.79760000       0.92460000       0.93520000
    36  H          0.70240000       0.42460000       0.56480000
    37  C          0.36194000       0.07353100       0.91388000
    38  C          0.13806000       0.57353100       0.58612000
    39  C          0.63806000       0.92646900       0.08612000
    40  C          0.86194000       0.42646900       0.41388000
    41  C          0.54744000       0.10135110       0.85336820
    42  C          0.95256000       0.60135110       0.64663180
    43  C          0.45256000       0.89864890       0.14663180
    44  C          0.04744000       0.39864890       0.35336820
    45  H          0.57030000       0.08890000       0.77990000
    46  H          0.92970000       0.58890000       0.72010000
    47  H          0.42970000       0.91110000       0.22010000
    48  H          0.07030000       0.41110000       0.27990000
    49  C          0.69844000       0.14661100       0.89771830
    50  C          0.80156000       0.64661100       0.60228170
    51  C          0.30156000       0.85338900       0.10228170
    52  C          0.19844000       0.35338900       0.39771830
    53  H          0.82140000       0.16430000       0.85510000
    54  H          0.67860000       0.66430000       0.64490000
    55  H          0.17860000       0.83570000       0.14490000
    56  H          0.32140000       0.33570000       0.35510000
    57  C          0.66454000       0.16541900       0.00673160
    58  C          0.83546000       0.66541900       0.49326840
    59  C          0.33546000       0.83458100      -0.00673160
    60  C          0.16454000       0.33458100       0.50673160
    61  C          0.19996000       0.02374130       0.86168000
    62  C          0.30004000       0.52374130       0.63832000
    63  C          0.80004000       0.97625870       0.13832000
    64  C          0.69996000       0.47625870       0.36168000
    65  H          0.08190000       0.01010000       0.91500000
    66  H          0.41810000       0.51010000       0.58500000
    67  H          0.91810000       0.98990000       0.08500000
    68  H          0.58190000       0.48990000       0.41500000
    69  H          0.30230000       0.98990000       0.84030000
    70  H          0.19770000       0.48990000       0.65970000
    71  H          0.69770000       0.01010000       0.15970000
    72  H          0.80230000       0.51010000       0.34030000
    73  H          0.11300000       0.03970000       0.79670000
    74  H          0.38700000       0.53970000       0.70330000
    75  H          0.88700000       0.96030000       0.20330000
    76  H          0.61300000       0.46030000       0.29670000
    77  O          0.15133000       0.27012700       0.96550890
    78  O          0.34867000       0.77012700       0.53449110
    79  O          0.84867000       0.72987300       0.03449110
    80  O          0.65133000       0.22987300       0.46550890
    81  H          0.04560000       0.25310000       0.00260000
    82  H          0.45440000       0.75310000       0.49740000
    83  H          0.95440000       0.74690000      -0.00260000
    84  H          0.54560000       0.24690000       0.50260000
    85  O          0.21053000       0.32343700       0.12223120
    86  O          0.28947000       0.82343700       0.37776880
    87  O          0.78947000       0.67656300       0.87776880
    88  O          0.71053000       0.17656300       0.62223120
    89  C          0.26244000       0.31276900       0.02632160
    90  C          0.23756000       0.81276900       0.47367840
    91  C          0.73756000       0.68723100       0.97367840
    92  C          0.76244000       0.18723100       0.52632160
    93  C          0.45594000       0.34752900       0.96460840
    94  C          0.04406000       0.84752900       0.53539160
    95  C          0.54406000       0.65247100       0.03539160
    96  C          0.95594000       0.15247100       0.46460840
    97  H          0.37580000       0.36810000       0.90130000
    98  H          0.12420000       0.86810000       0.59870000
    99  H          0.62420000       0.63190000       0.09870000
   100  H          0.87580000       0.13190000       0.40130000
   101  H          0.57400000       0.31850000       0.93520000
   102  H          0.92600000       0.81850000       0.56480000
   103  H          0.42600000       0.68150000       0.06480000
   104  H          0.07400000       0.18150000       0.43520000
   105  C          0.59684000       0.39443900       0.03408160
   106  C          0.90316000       0.89443900       0.46591840
   107  C          0.40316000       0.60556100       0.96591840
   108  C          0.09684000       0.10556100       0.53408160
   109  H          0.69310000       0.37350000       0.09240000
   110  H          0.80690000       0.87350000       0.40760000
   111  H          0.30690000       0.62650000       0.90760000
   112  H          0.19310000       0.12650000       0.59240000
   113  H          0.47880000       0.42100000       0.07010000
   114  H          0.02120000       0.92100000       0.42990000
   115  H          0.52120000       0.57900000       0.92990000
   116  H         -0.02120000       0.07900000       0.57010000
   117  C          0.76984000       0.43316900       0.96569830
   118  C          0.73016000       0.93316900       0.53430170
   119  C          0.23016000       0.56683100       0.03430170
   120  C          0.26984000       0.06683100       0.46569830
   121  H          0.88550000       0.40640000       0.92870000
   122  H          0.61450000       0.90640000       0.57130000
   123  H          0.11450000       0.59360000       0.07130000
   124  H          0.38550000       0.09360000       0.42870000
   125  H          0.67260000       0.45440000       0.90800000
   126  H          0.82740000       0.95440000       0.59200000
   127  H          0.32740000       0.54560000       0.09200000
   128  H          0.17260000       0.04560000       0.40800000
   129  C          0.91594000       0.47985900       0.03387160
   130  C          0.58406000       0.97985900       0.46612840
   131  C          0.08406000       0.52014100       0.96612840
   132  C          0.41594000       0.02014100       0.53387160
   133  H          0.01640000       0.45850000       0.09010000
   134  H          0.48360000       0.95850000       0.40990000
   135  H         -0.01640000       0.54150000       0.90990000
   136  H          0.51640000       0.04150000       0.59010000
   137  H          0.80000000       0.50580000       0.07270000
   138  H          0.70000000       0.00580000       0.42730000
   139  H          0.20000000       0.49420000       0.92730000
   140  H          0.30000000      -0.00580000       0.57270000
