data_DUDFUH02
_symmetry_space_group_name_H-M    'P1'
_symmetry_Int_Tables_number       1
loop_
_symmetry_equiv_pos_site_id
_symmetry_equiv_pos_as_xyz
1 x,y,z
_cell_length_a                   11.40316
_cell_length_b                   15.46731
_cell_length_c                   12.19938
_cell_angle_alpha                90.0
_cell_angle_beta                 108.4612
_cell_angle_gamma                90.0
loop_
_atom_site_label
_atom_site_type_symbol
_atom_site_fract_x
_atom_site_fract_y
_atom_site_fract_z
     1  O          0.61999700       0.56130500       0.51664700
     2  O          0.88000300       0.06130500       0.98335300
     3  O          0.38000300       0.43869500       0.48335300
     4  O          0.11999700       0.93869500       0.01664700
     5  C          0.84180120       0.38262900       0.34462110
     6  C          0.65819880       0.88262900       0.15537890
     7  C          0.15819880       0.61737100       0.65537890
     8  C          0.34180120       0.11737100       0.84462110
     9  H          0.88652800       0.38705400       0.29108000
    10  H          0.61347200       0.88705400       0.20892000
    11  H          0.11347200       0.61294600       0.70892000
    12  H          0.38652800       0.11294600       0.79108000
    13  C          0.82226100       0.45514800       0.40414100
    14  C          0.67773900       0.95514800       0.09585900
    15  C          0.17773900       0.54485200       0.59585900
    16  C          0.32226100       0.04485200       0.90414100
    17  C          0.85793100       0.54613800       0.39979900
    18  C          0.64206900       0.04613800       0.10020100
    19  C          0.14206900       0.45386200       0.60020100
    20  C          0.35793100       0.95386200       0.89979900
    21  C          0.92276110       0.58684900       0.33493100
    22  C          0.57723890       0.08684900       0.16506900
    23  C          0.07723890       0.41315100       0.66506900
    24  C          0.42276110       0.91315100       0.83493100
    25  H          0.95255200       0.55467900       0.28289100
    26  H          0.54744800       0.05467900       0.21710900
    27  H          0.04744800       0.44532100       0.71710900
    28  H          0.45255200       0.94532100       0.78289100
    29  C          0.94303120       0.67524900       0.34776110
    30  C          0.55696880       0.17524900       0.15223890
    31  C          0.05696880       0.32475100       0.65223890
    32  C          0.44303120       0.82475100       0.84776110
    33  H         -0.01335200       0.70380200       0.30359800
    34  H          0.51335200       0.20380200       0.19640200
    35  H          0.01335200       0.29619800       0.69640200
    36  H          0.48664800       0.79619800       0.80359800
    37  C          0.90049120       0.72255900       0.42419120
    38  C          0.59950880       0.22255900       0.07580880
    39  C          0.09950880       0.27744100       0.57580880
    40  C          0.40049120       0.77744100       0.92419120
    41  H          0.91517100       0.78305900       0.43167400
    42  H          0.58482900       0.28305900       0.06832600
    43  H          0.08482900       0.21694100       0.56832600
    44  H          0.41517100       0.71694100       0.93167400
    45  C          0.83639110       0.68207800       0.49008110
    46  C          0.66360890       0.18207800       0.00991890
    47  C          0.16360890       0.31792200       0.50991890
    48  C          0.33639110       0.81792200      -0.00991890
    49  H          0.80815000       0.71420500       0.54318300
    50  H          0.69185000       0.21420500       0.95681700
    51  H          0.19185000       0.28579500       0.45681700
    52  H          0.30815000       0.78579500       0.04318300
    53  C          0.81481100       0.59411800       0.47645900
    54  C          0.68518900       0.09411800       0.02354100
    55  C          0.18518900       0.40588200       0.52354100
    56  C          0.31481100       0.90588200       0.97645900
    57  C          0.74473100       0.53573700       0.53616900
    58  C          0.75526900       0.03573700       0.96383100
    59  C          0.25526900       0.46426300       0.46383100
    60  C          0.24473100       0.96426300       0.03616900
    61  C          0.75680100       0.44742700       0.48344100
    62  C          0.74319900       0.94742700       0.01655900
    63  C          0.24319900       0.55257300       0.51655900
    64  C          0.25680100       0.05257300       0.98344100
    65  C          0.71046110       0.36895800       0.50465110
    66  C          0.78953890       0.86895800      -0.00465110
    67  C          0.28953890       0.63104200       0.49534890
    68  C          0.21046110       0.13104200       0.00465110
    69  H          0.66691800       0.36435100       0.55914500
    70  H          0.83308200       0.86435100       0.94085500
    71  H          0.33308200       0.63564900       0.44085500
    72  H          0.16691800       0.13564900       0.05914500
    73  C          0.72926120       0.29640800       0.44384120
    74  C          0.77073880       0.79640800       0.05615880
    75  C          0.27073880       0.70359200       0.55615880
    76  C          0.22926120       0.20359200       0.94384120
    77  H          0.69730300       0.24186300       0.45631400
    78  H          0.80269700       0.74186300       0.04368600
    79  H          0.30269700       0.75813700       0.54368600
    80  H          0.19730300       0.25813700       0.95631400
    81  C          0.79455130       0.30354900       0.36509120
    82  C          0.70544870       0.80354900       0.13490880
    83  C          0.20544870       0.69645100       0.63490880
    84  C          0.29455130       0.19645100       0.86509120
    85  H          0.80696600       0.25360900       0.32476500
    86  H          0.69303400       0.75360900       0.17523500
    87  H          0.19303400       0.74639100       0.67523500
    88  H          0.30696600       0.24639100       0.82476500
    89  C          0.80635100       0.53338700       0.66218100
    90  C          0.69364900       0.03338700       0.83781900
    91  C          0.19364900       0.46661300       0.33781900
    92  C          0.30635100       0.96661300       0.16218100
    93  C          0.86164100       0.52657700       0.76316100
    94  C          0.63835900       0.02657700       0.73683900
    95  C          0.13835900       0.47342300       0.23683900
    96  C          0.36164100       0.97342300       0.26316100
    97  C          0.89892110       0.27504800       0.90745110
    98  C          0.60107890       0.77504800       0.59254890
    99  C          0.10107890       0.72495200       0.09254890
   100  C          0.39892110       0.22495200       0.40745110
   101  H          0.86297000       0.22697200       0.86028200
   102  H          0.63703000       0.72697200       0.63971800
   103  H          0.13703000       0.77302800       0.13971800
   104  H          0.36297000       0.27302800       0.36028200
   105  C          0.88790110       0.35582800       0.86034100
   106  C          0.61209890       0.85582800       0.63965900
   107  C          0.11209890       0.64417200       0.13965900
   108  C          0.38790110       0.14417200       0.36034100
   109  H          0.84324300       0.36352700       0.78078300
   110  H          0.65675700       0.86352700       0.71921700
   111  H          0.15675700       0.63647300       0.21921700
   112  H          0.34324300       0.13647300       0.28078300
   113  C          0.94265100       0.42902700       0.92910900
   114  C          0.55734900       0.92902700       0.57089100
   115  C          0.05734900       0.57097300       0.07089100
   116  C          0.44265100       0.07097300       0.42910900
   117  C          0.93097100       0.51352700       0.88239900
   118  C          0.56902900       0.01352700       0.61760100
   119  C          0.06902900       0.48647300       0.11760100
   120  C          0.43097100       0.98647300       0.38239900
   121  C         -0.01167900       0.58434700       0.95173900
   122  C          0.51167900       0.08434700       0.54826100
   123  C          0.01167900       0.41565300       0.04826100
   124  C          0.48832100       0.91565300       0.45173900
   125  C          0.98055110       0.66997800       0.90552100
   126  C          0.51944890       0.16997800       0.59447900
   127  C          0.01944890       0.33002200       0.09447900
   128  C          0.48055110       0.83002200       0.40552100
   129  H          0.93593600       0.67968400       0.82638000
   130  H          0.56406400       0.17968400       0.67362000
   131  H          0.06406400       0.32031600       0.17362000
   132  H          0.43593600       0.82031600       0.32638000
   133  C          0.03614120       0.73764800       0.97334110
   134  C          0.46385880       0.23764800       0.52665890
   135  C          0.96385880       0.26235200       0.02665890
   136  C          0.53614120       0.76235200       0.47334110
   137  H          0.03153300       0.79382000       0.94076800
   138  H          0.46846700       0.29382000       0.55923200
   139  H          0.96846700       0.20618000       0.05923200
   140  H          0.53153300       0.70618000       0.44076800
   141  H          0.57431500       0.54921200       0.43655000
   142  H          0.92568500       0.04921200       0.06345000
   143  H          0.42568500       0.45078800       0.56345000
   144  H          0.07431500       0.95078800       0.93655000
   145  N          0.49558100       0.53006800       0.28288900
   146  N          0.00441900       0.03006800       0.21711100
   147  N          0.50441900       0.46993200       0.71711100
   148  N         -0.00441900       0.96993200       0.78288900
   149  C          0.44654130       0.59037900       0.20369120
   150  C          0.05345870       0.09037900       0.29630880
   151  C          0.55345870       0.40962100       0.79630880
   152  C          0.94654130       0.90962100       0.70369120
   153  H          0.45857900       0.64932800       0.22628700
   154  H          0.04142100       0.14932800       0.27371300
   155  H          0.54142100       0.35067200       0.77371300
   156  H          0.95857900       0.85067200       0.72628700
   157  C          0.37889130       0.57177900       0.09005110
   158  C          0.12110870       0.07177900       0.40994890
   159  C          0.62110870       0.42822100       0.90994890
   160  C          0.87889130       0.92822100       0.59005110
   161  H          0.34479300       0.61731400       0.03734100
   162  H          0.15520700       0.11731400       0.46265900
   163  H          0.65520700       0.38268600       0.96265900
   164  H          0.84479300       0.88268600       0.53734100
   165  C          0.36121110       0.48669800       0.05369100
   166  C          0.13878890       0.98669800       0.44630900
   167  C          0.63878890       0.51330200       0.94630900
   168  C          0.86121110       0.01330200       0.55369100
   169  C          0.41169120       0.42367900       0.13623120
   170  C          0.08830880       0.92367900       0.36376880
   171  C          0.58830880       0.57632100       0.86376880
   172  C          0.91169120       0.07632100       0.63623120
   173  H          0.40175800       0.36420500       0.11592500
   174  H          0.09824200       0.86420500       0.38407500
   175  H          0.59824200       0.63579500       0.88407500
   176  H          0.90175800       0.13579500       0.61592500
   177  C          0.47659130       0.44798100       0.24831120
   178  C          0.02340870       0.94798100       0.25168880
   179  C          0.52340870       0.55201900       0.75168880
   180  C          0.97659130       0.05201900       0.74831120
   181  H          0.50938500       0.40377600       0.30359900
   182  H         -0.00938500       0.90377600       0.19640100
   183  H          0.49061500       0.59622400       0.69640100
   184  H          0.00938500       0.09622400       0.80359900
   185  C          0.28843130       0.46405100       0.93113890
   186  C          0.21156870       0.96405100       0.56886110
   187  C          0.71156870       0.53594900       0.06886110
   188  C          0.78843130       0.03594900       0.43113890
   189  H          0.19991300       0.47030800       0.92015200
   190  H          0.30008700       0.97030800       0.57984800
   191  H          0.80008700       0.52969200       0.07984800
   192  H          0.69991300       0.02969200       0.42015200
   193  H          0.30607800       0.40417900       0.91526200
   194  H          0.19392200       0.90417900       0.58473800
   195  H          0.69392200       0.59582100       0.08473800
   196  H          0.80607800       0.09582100       0.41526200
   197  H          0.31185200       0.50292200       0.87812800
   198  H          0.18814800       0.00292200       0.62187200
   199  H          0.68814800       0.49707800       0.12187200
   200  H          0.81185200      -0.00292200       0.37812800
