data_DUDFOB
_symmetry_space_group_name_H-M    'P1'
_symmetry_Int_Tables_number       1
loop_
_symmetry_equiv_pos_site_id
_symmetry_equiv_pos_as_xyz
1 x,y,z
_cell_length_a                   9.39156
_cell_length_b                   11.27947
_cell_length_c                   11.38676
_cell_angle_alpha                113.8782
_cell_angle_beta                 105.0912
_cell_angle_gamma                102.1562
loop_
_atom_site_label
_atom_site_type_symbol
_atom_site_fract_x
_atom_site_fract_y
_atom_site_fract_z
     1  O          0.63355110       0.11854900       0.45234900
     2  O          0.36644890       0.88145100       0.54765100
     3  C          0.56528150       0.51828140       0.75245130
     4  C          0.43471850       0.48171860       0.24754870
     5  H          0.60997500       0.61644400       0.79411900
     6  H          0.39002500       0.38355600       0.20588100
     7  C          0.58946140       0.43230130       0.63698120
     8  C          0.41053860       0.56769870       0.36301880
     9  C          0.68139140       0.46580130       0.56053120
    10  C          0.31860860       0.53419870       0.43946880
    11  C          0.77131150       0.59288130       0.58159130
    12  C          0.22868850       0.40711870       0.41840870
    13  H          0.78123800       0.67737400       0.65599600
    14  H          0.21876200       0.32262600       0.34400400
    15  C          0.84637150       0.59374140       0.49151140
    16  C          0.15362850       0.40625860       0.50848860
    17  H          0.90790400       0.67981000       0.50437600
    18  H          0.09209600       0.32019000       0.49562400
    19  C          0.83262150       0.47030140       0.38279140
    20  C          0.16737850       0.52969860       0.61720860
    21  H          0.88520600       0.47301300       0.32254500
    22  H          0.11479400       0.52698700       0.67745500
    23  C          0.74253150       0.34265130       0.36126130
    24  C          0.25746850       0.65734870       0.63873870
    25  H          0.73259100       0.25822800       0.28675700
    26  H          0.26740900       0.74177200       0.71324300
    27  C          0.66795130       0.34193130       0.45103120
    28  C          0.33204870       0.65806870       0.54896880
    29  C          0.56182140       0.21658120       0.44822120
    30  C          0.43817860       0.78341880       0.55177880
    31  C          0.52089140       0.28781130       0.57491120
    32  C          0.47910860       0.71218870       0.42508880
    33  C          0.42977150       0.22636140       0.62719130
    34  C          0.57022850       0.77363860       0.37280870
    35  H          0.38338500       0.12821300       0.58445800
    36  H          0.61661500       0.87178700       0.41554200
    37  C          0.40798150       0.31298150       0.74475140
    38  C          0.59201850       0.68701850       0.25524860
    39  H          0.34758500       0.27331900       0.78365800
    40  H          0.65241500       0.72668100       0.21634200
    41  C          0.47389160       0.45670150       0.80529130
    42  C          0.52610840       0.54329850       0.19470870
    43  H          0.45619500       0.51380100       0.88409400
    44  H          0.54380500       0.48619900       0.11590600
    45  C          0.41646140       0.14435130       0.32048130
    46  C          0.58353860       0.85564870       0.67951870
    47  C          0.29534140       0.09833130       0.22207130
    48  C          0.70465860       0.90166870       0.77792870
    49  C          0.86915840       0.01214140       0.28561140
    50  C          0.13084160      -0.01214140       0.71438860
    51  H          0.87228300       0.02640000       0.37452200
    52  H          0.12771700       0.97360000       0.62547800
    53  C          0.00636150       0.03675130       0.26432130
    54  C         -0.00636150       0.96324870       0.73567870
    55  H          0.10400000       0.06660000       0.33835600
    56  H          0.89600000       0.93340000       0.66164400
    57  C          0.00522140       0.01826120       0.13240120
    58  C         -0.00522140      -0.01826120       0.86759880
    59  C          0.14682140       0.04790120       0.10980120
    60  C          0.85317860       0.95209880       0.89019880
    61  C          0.14325140       0.03006120       0.97866880
    62  C          0.85674860       0.96993880       0.02133120
    63  C          0.28438150       0.05676130       0.95245870
    64  C          0.71561850       0.94323870       0.04754130
    65  H          0.38396400       0.09048100       0.02574000
    66  H          0.61603600       0.90951900       0.97426000
    67  C          0.27828150       0.03465140       0.82433860
    68  C          0.72171850       0.96534860       0.17566140
    69  H          0.37309300       0.05057600       0.80829200
    70  H          0.62690700       0.94942400       0.19170800
    71  H          0.72281500       0.16420000       0.54221000
    72  H          0.27718500       0.83580000       0.45779000
    73  N          0.86592140       0.23623130       0.71557130
    74  N          0.13407860       0.76376870       0.28442870
    75  C          0.79203160       0.22266150       0.79760150
    76  C          0.20796840       0.77733850       0.20239850
    77  H          0.68144300       0.17241700       0.75541700
    78  H          0.31855700       0.82758300       0.24458300
    79  C          0.86610160       0.27708140       0.94017150
    80  C          0.13389840       0.72291860       0.05982850
    81  C          0.02844170       0.34812150       0.00006150
    82  C          0.97155830       0.65187850      -0.00006150
    83  H          0.08454500       0.38714500       0.09736100
    84  H          0.91545500       0.61285500       0.90263900
    85  C          0.10739170       0.36140160       0.91658160
    86  C          0.89260830       0.63859840       0.08341840
    87  H          0.21847700       0.40855100       0.95548000
    88  H          0.78152300       0.59144900       0.04452000
    89  C          0.02211170       0.30495160       0.77545160
    90  C         -0.02211170       0.69504840       0.22454840
    91  H          0.07674300       0.31543700       0.71877500
    92  H          0.92325700       0.68456300       0.28122500
    93  C          0.77252000       0.26064180       0.02348170
    94  C          0.22748000       0.73935820       0.97651830
    95  H          0.83770500       0.25551700       0.10264700
    96  H          0.16229500       0.74448300       0.89735300
    97  H          0.67931900       0.17518300       0.96488000
    98  H          0.32068100       0.82481700       0.03512000
    99  H          0.73893700       0.34038600       0.05776900
   100  H          0.26106300       0.65961400       0.94223100
