data_DUDGIW
_symmetry_space_group_name_H-M    'P1'
_symmetry_Int_Tables_number       1
loop_
_symmetry_equiv_pos_site_id
_symmetry_equiv_pos_as_xyz
1 x,y,z
_cell_length_a                   11.812413
_cell_length_b                   15.720716
_cell_length_c                   12.244413
_cell_angle_alpha                90.0
_cell_angle_beta                 116.1733
_cell_angle_gamma                90.0
loop_
_atom_site_label
_atom_site_type_symbol
_atom_site_fract_x
_atom_site_fract_y
_atom_site_fract_z
     1  O          0.60357100       0.56707700       0.46511100
     2  O          0.89642900       0.06707700       0.03488900
     3  O          0.39642900       0.43292300       0.53488900
     4  O          0.10357100       0.93292300       0.96511100
     5  C          0.77745160       0.34142110       0.33992150
     6  C          0.72254840       0.84142110       0.16007850
     7  C          0.22254840       0.65857890       0.66007850
     8  C          0.27745160       0.15857890       0.83992150
     9  H          0.82070900       0.33312300       0.29121800
    10  H          0.67929100       0.83312300       0.20878200
    11  H          0.17929100       0.66687700       0.70878200
    12  H          0.32070900       0.16687700       0.79121800
    13  C          0.77441140       0.42139100       0.38824130
    14  C          0.72558860       0.92139100       0.11175870
    15  C          0.22558860       0.57860900       0.61175870
    16  C          0.27441140       0.07860900       0.88824130
    17  C          0.83295140       0.50219100       0.38197120
    18  C          0.66704860       0.00219100       0.11802880
    19  C          0.16704860       0.49780900       0.61802880
    20  C          0.33295140      -0.00219100       0.88197120
    21  C          0.90907150       0.52291110       0.32616140
    22  C          0.59092850       0.02291110       0.17383860
    23  C          0.09092850       0.47708890       0.67383860
    24  C          0.40907150       0.97708890       0.82616140
    25  H          0.92852500       0.48168800       0.28026600
    26  H          0.57147500       0.98168800       0.21973400
    27  H          0.07147500       0.51831200       0.71973400
    28  H          0.42852500       0.01831200       0.78026600
    29  C          0.95625150       0.60499120       0.33866150
    30  C          0.54374850       0.10499120       0.16133850
    31  C          0.04374850       0.39500880       0.66133850
    32  C          0.45625150       0.89500880       0.83866150
    33  H          0.00847700       0.61999100       0.30085200
    34  H          0.49152300       0.11999100       0.19914800
    35  H         -0.00847700       0.38000900       0.69914800
    36  H          0.50847700       0.88000900       0.80085200
    37  C          0.92821160       0.66562110       0.40570150
    38  C          0.57178840       0.16562110       0.09429850
    39  C          0.07178840       0.33437890       0.59429850
    40  C          0.42821160       0.83437890       0.90570150
    41  H          0.96125400       0.72154400       0.41303700
    42  H          0.53874600       0.22154400       0.08696300
    43  H          0.03874600       0.27845600       0.58696300
    44  H          0.46125400       0.77845600       0.91303700
    45  C          0.85195150       0.64507100       0.46233140
    46  C          0.64804850       0.14507100       0.03766860
    47  C          0.14804850       0.35492900       0.53766860
    48  C          0.35195150       0.85492900       0.96233140
    49  H          0.83287700       0.68631100       0.50846500
    50  H          0.66712300       0.18631100      -0.00846500
    51  H          0.16712300       0.31368900       0.49153500
    52  H          0.33287700       0.81368900       0.00846500
    53  C          0.80487140       0.56337100       0.44971120
    54  C          0.69512860       0.06337100       0.05028880
    55  C          0.19512860       0.43662900       0.55028880
    56  C          0.30487140       0.93662900       0.94971120
    57  C          0.72152140       0.52481900       0.50339130
    58  C          0.77847860       0.02481900      -0.00339130
    59  C          0.27847860       0.47518100       0.49660870
    60  C          0.22152140       0.97518100       0.00339130
    61  C          0.70963140       0.43245100       0.45901130
    62  C          0.79036860       0.93245100       0.04098870
    63  C          0.29036860       0.56754900       0.54098870
    64  C          0.20963140       0.06754900       0.95901130
    65  C          0.64748150       0.36577100       0.48270150
    66  C          0.85251850       0.86577100       0.01729850
    67  C          0.35251850       0.63422900       0.51729850
    68  C          0.14748150       0.13422900       0.98270150
    69  H          0.60330400       0.37403000       0.53056800
    70  H          0.89669600       0.87403000       0.96943200
    71  H          0.39669600       0.62597000       0.46943200
    72  H          0.10330400       0.12597000       0.03056800
    73  C          0.65131160       0.28605110       0.43449170
    74  C          0.84868840       0.78605110       0.06550830
    75  C          0.34868840       0.71394890       0.56550830
    76  C          0.15131160       0.21394890       0.93449170
    77  H          0.60933300       0.23922100       0.44956100
    78  H          0.89066700       0.73922100       0.05043900
    79  H          0.39066700       0.76077900       0.55043900
    80  H          0.10933300       0.26077900       0.94956100
    81  C          0.71623170       0.27470110       0.36448160
    82  C          0.78376830       0.77470110       0.13551840
    83  C          0.28376830       0.72529890       0.63551840
    84  C          0.21623170       0.22529890       0.86448160
    85  H          0.71847800       0.21986600       0.33289700
    86  H          0.78152200       0.71986600       0.16710300
    87  H          0.28152200       0.78013400       0.66710300
    88  H          0.21847800       0.28013400       0.83289700
    89  C          0.78733140       0.52648900       0.63762140
    90  C          0.71266860       0.02648900       0.86237860
    91  C          0.21266860       0.47351100       0.36237860
    92  C          0.28733140       0.97351100       0.13762140
    93  C          0.84867140       0.52120900       0.74528140
    94  C          0.65132860       0.02120900       0.75471860
    95  C          0.15132860       0.47879100       0.25471860
    96  C          0.34867140       0.97879100       0.24528140
    97  C          0.84596160       0.28762100       0.91579150
    98  C          0.65403840       0.78762100       0.58420850
    99  C          0.15403840       0.71237900       0.08420850
   100  C          0.34596160       0.21237900       0.41579150
   101  H          0.79594900       0.24165700       0.86877700
   102  H          0.70405100       0.74165700       0.63122300
   103  H          0.20405100       0.75834300       0.13122300
   104  H          0.29594900       0.25834300       0.36877700
   105  C          0.84597150       0.36275100       0.86045140
   106  C          0.65402850       0.86275100       0.63954860
   107  C          0.15402850       0.63724900       0.13954860
   108  C          0.34597150       0.13724900       0.36045140
   109  H          0.79488700       0.36900000       0.77546900
   110  H          0.70511300       0.86900000       0.72453100
   111  H          0.20511300       0.63100000       0.22453100
   112  H          0.29488700       0.13100000       0.27546900
   113  C          0.92224140       0.43242900       0.92912130
   114  C          0.57775860       0.93242900       0.57087870
   115  C          0.07775860       0.56757100       0.07087870
   116  C          0.42224140       0.06757100       0.42912130
   117  C          0.92457140       0.51077900       0.87351130
   118  C          0.57542860       0.01077900       0.62648870
   119  C          0.07542860       0.48922100       0.12648870
   120  C          0.42457140       0.98922100       0.37351130
   121  C          0.00178140       0.57839900       0.94316130
   122  C          0.49821860       0.07839900       0.55683870
   123  C         -0.00178140       0.42160100       0.05683870
   124  C          0.50178140       0.92160100       0.44316130
   125  C          0.00642150       0.65791100       0.88882140
   126  C          0.49357850       0.15791100       0.61117860
   127  C         -0.00642150       0.34208900       0.11117860
   128  C          0.50642150       0.84208900       0.38882140
   129  H          0.95737100       0.66570500       0.80379100
   130  H          0.54262900       0.16570500       0.69620900
   131  H          0.04262900       0.33429500       0.19620900
   132  H          0.45737100       0.83429500       0.30379100
   133  C          0.08024160       0.72272100       0.95727160
   134  C          0.41975840       0.22272100       0.54272840
   135  C          0.91975840       0.27727900       0.04272840
   136  C          0.58024160       0.77727900       0.45727160
   137  H          0.08223800       0.77517200       0.91963200
   138  H          0.41776200       0.27517200       0.58036800
   139  H          0.91776200       0.22482800       0.08036800
   140  H          0.58223800       0.72482800       0.41963200
   141  H          0.55220000       0.55331700       0.38017000
   142  H          0.94780000       0.05331700       0.11983000
   143  H          0.44780000       0.44668300       0.61983000
   144  H          0.05220000       0.94668300       0.88017000
   145  N          0.45941140       0.51998110       0.22406140
   146  N          0.04058860       0.01998110       0.27593860
   147  N          0.54058860       0.48001890       0.77593860
   148  N          0.95941140       0.98001890       0.72406140
   149  C          0.43943190       0.56562140       0.12612180
   150  C          0.06056810       0.06562140       0.37387820
   151  C          0.56056810       0.43437860       0.87387820
   152  C          0.93943190       0.93437860       0.62612180
   153  C          0.36322000       0.53429180       0.00798190
   154  C          0.13678000       0.03429180       0.49201810
   155  C          0.63678000       0.46570820      -0.00798190
   156  C          0.86322000       0.96570820       0.50798190
   157  H          0.34835900       0.56759500       0.93820800
   158  H          0.15164100       0.06759500       0.56179200
   159  H          0.65164100       0.43240500       0.06179200
   160  H          0.84835900       0.93240500       0.43820800
   161  C          0.31152000       0.45534180      -0.00382000
   162  C          0.18848000       0.95534180       0.50382000
   163  C          0.68848000       0.54465820       0.00382000
   164  C          0.81152000       0.04465820       0.49618000
   165  H          0.25963600       0.43353700       0.91736000
   166  H          0.24036400       0.93353700       0.58264000
   167  H          0.74036400       0.56646300       0.08264000
   168  H          0.75963600       0.06646300       0.41736000
   169  C          0.33352000       0.40683170       0.09722000
   170  C          0.16648000       0.90683170       0.40278000
   171  C          0.66648000       0.59316830       0.90278000
   172  C          0.83352000       0.09316830       0.59722000
   173  H          0.29937000       0.35123300       0.08982100
   174  H          0.20063000       0.85123300       0.41017900
   175  H          0.70063000       0.64876700       0.91017900
   176  H          0.79937000       0.14876700       0.58982100
   177  C          0.40681180       0.44209140       0.20912000
   178  C          0.09318820       0.94209140       0.29088000
   179  C          0.59318820       0.55790860       0.79088000
   180  C          0.90681180       0.05790860       0.70912000
   181  H          0.42122700       0.40987300       0.27965700
   182  H          0.07877300       0.90987300       0.22034300
   183  H          0.57877300       0.59012700       0.72034300
   184  H          0.92122700       0.09012700       0.77965700
   185  C          0.50033000       0.64928160       0.14822000
   186  C         -0.00033000       0.14928160       0.35178000
   187  C          0.49967000       0.35071840       0.85178000
   188  C          0.00033000       0.85071840       0.64822000
   189  H          0.45419600       0.68901400       0.17554000
   190  H          0.04580400       0.18901400       0.32446000
   191  H          0.54580400       0.31098600       0.82446000
   192  H          0.95419600       0.81098600       0.67554000
   193  H          0.49992300       0.67046600       0.07273700
   194  H          0.00007700       0.17046600       0.42726300
   195  H          0.50007700       0.32953400       0.92726300
   196  H         -0.00007700       0.82953400       0.57273700
   197  H          0.58755100       0.64428200       0.21100000
   198  H          0.91244900       0.14428200       0.28900000
   199  H          0.41244900       0.35571800       0.78900000
   200  H          0.08755100       0.85571800       0.71100000
