data_DUDKAO
_symmetry_space_group_name_H-M    'P1'
_symmetry_Int_Tables_number       1
loop_
_symmetry_equiv_pos_site_id
_symmetry_equiv_pos_as_xyz
1 x,y,z
_cell_length_a                   7.4422
_cell_length_b                   11.9203
_cell_length_c                   12.7913
_cell_angle_alpha                110.042
_cell_angle_beta                 113.242
_cell_angle_gamma                96.133
loop_
_atom_site_label
_atom_site_type_symbol
_atom_site_fract_x
_atom_site_fract_y
_atom_site_fract_z
     1  O          0.93923000       0.67912000       0.64792000
     2  O          0.06077000       0.32088000       0.35208000
     3  O          0.95204000       0.74222000       0.51352000
     4  O          0.04796000       0.25778000       0.48648000
     5  N          0.24043000       0.77878000       0.14642000
     6  N          0.75957000       0.22122000       0.85358000
     7  N          0.89343000       0.66382000       0.54072000
     8  N          0.10657000       0.33618000       0.45928000
     9  C          0.50383000       0.31542000       0.25092000
    10  C          0.49617000       0.68458000       0.74908000
    11  C          0.56974000       0.33762000       0.37572000
    12  C          0.43026000       0.66238000       0.62428000
    13  C          0.69824000       0.45112000       0.47052000
    14  C          0.30176000       0.54888000       0.52948000
    15  C          0.76143000       0.54182000       0.43962000
    16  C          0.23857000       0.45818000       0.56038000
    17  C          0.70273000       0.52342000       0.31732000
    18  C          0.29727000       0.47658000       0.68268000
    19  C          0.57193000       0.40972000       0.22332000
    20  C          0.42807000       0.59028000       0.77668000
    21  C          0.35903000       0.19212000       0.14762000
    22  C          0.64097000       0.80788000       0.85238000
    23  C          0.41223000       0.08222000       0.17482000
    24  C          0.58777000       0.91778000       0.82518000
    25  C          0.29353000       0.00852000       0.19422000
    26  C          0.70647000      -0.00852000       0.80578000
    27  C          0.36313000       0.91118000       0.23832000
    28  C          0.63687000       0.08882000       0.76168000
    29  C          0.61563000       0.06842000       0.18073000
    30  C          0.38437000       0.93158000       0.81927000
    31  C          0.08803000       0.01992000       0.18593000
    32  C          0.91197000       0.98008000       0.81407000
    33  C          0.32914000       0.68738000       0.19412000
    34  C          0.67086000       0.31262000       0.80588000
    35  C          0.34525000       0.70687000       0.32043000
    36  C          0.65475000       0.29313000       0.67957000
    37  C          0.22364000       0.75138000       0.01902000
    38  C          0.77636000       0.24862000       0.98098000
    39  C          0.07384000       0.62788000       0.91948000
    40  C          0.92616000       0.37212000       0.08052000
    41  H          0.09893700       0.76417800       0.13992300
    42  H          0.90106300       0.23582200       0.86007700
    43  H          0.52540000       0.27310000       0.39630000
    44  H          0.47460000       0.72690000       0.60370000
    45  H          0.74260000       0.46640000       0.55680000
    46  H          0.25740000       0.53360000       0.44320000
    47  H          0.75120000       0.58760000       0.29780000
    48  H          0.24880000       0.41240000       0.70220000
    49  H          0.52700000       0.39550000       0.13730000
    50  H          0.47300000       0.60450000       0.86270000
    51  H          0.22390000       0.19110000       0.13750000
    52  H          0.77610000       0.80890000       0.86250000
    53  H          0.36290000       0.18360000       0.07120000
    54  H          0.63710000       0.81640000       0.92880000
    55  H          0.50230000       0.91940000       0.25420000
    56  H          0.49770000       0.08060000       0.74580000
    57  H          0.35480000       0.92690000       0.31480000
    58  H          0.64520000       0.07310000       0.68520000
    59  H          0.65720000       0.11240000       0.14000000
    60  H          0.34280000       0.88760000       0.86000000
    61  H          0.61210000       0.98270000       0.14370000
    62  H          0.38790000       0.01730000       0.85630000
    63  H          0.71070000       0.10480000       0.26830000
    64  H          0.28930000       0.89520000       0.73170000
    65  H          0.00590000       0.94220000       0.16980000
    66  H         -0.00590000       0.05780000       0.83020000
    67  H          0.01990000       0.04300000       0.11930000
    68  H         -0.01990000       0.95700000       0.88070000
    69  H          0.10900000       0.08270000       0.26400000
    70  H          0.89100000       0.91730000       0.73600000
    71  H          0.46310000       0.69550000       0.20030000
    72  H          0.53690000       0.30450000       0.79970000
    73  H          0.24380000       0.60490000       0.13480000
    74  H          0.75620000       0.39510000       0.86520000
    75  H          0.37840000       0.63610000       0.33470000
    76  H          0.62160000       0.36390000       0.66530000
    77  H          0.21990000       0.71300000       0.32230000
    78  H          0.78010000       0.28700000       0.67770000
    79  H          0.45150000       0.78110000       0.38460000
    80  H          0.54850000       0.21890000       0.61540000
    81  H          0.18050000       0.81590000      -0.00470000
    82  H          0.81950000       0.18410000       0.00470000
    83  H          0.35530000       0.75100000       0.02340000
    84  H          0.64470000       0.24900000       0.97660000
    85  H          0.06140000       0.62510000       0.84100000
    86  H          0.93860000       0.37490000       0.15900000
    87  H          0.94360000       0.62290000       0.91860000
    88  H          0.05640000       0.37710000       0.08140000
    89  H          0.12010000       0.55920000       0.93180000
    90  H          0.87990000       0.44080000       0.06820000
    91  Cl         0.79959000       0.69471000       0.11731000
    92  Cl         0.20041000       0.30529000       0.88269000
    93  O          0.84078000       0.88672000       0.34932000
    94  O          0.15922000       0.11328000       0.65068000
    95  O          0.17883000       0.95202000       0.45422000
    96  O          0.82117000       0.04798000       0.54578000
    97  C          0.01603000       0.95572000       0.44702000
    98  C         -0.01603000       0.04428000       0.55298000
    99  H          0.83814700       0.81253300       0.26293600
   100  H          0.16185300       0.18746700       0.73706400
