data_DUFJIA01
_symmetry_space_group_name_H-M    'P1'
_symmetry_Int_Tables_number       1
loop_
_symmetry_equiv_pos_site_id
_symmetry_equiv_pos_as_xyz
1 x,y,z
_cell_length_a                   5.06584
_cell_length_b                   11.17849
_cell_length_c                   19.538115
_cell_angle_alpha                101.1442
_cell_angle_beta                 94.0392
_cell_angle_gamma                101.0702
loop_
_atom_site_label
_atom_site_type_symbol
_atom_site_fract_x
_atom_site_fract_y
_atom_site_fract_z
     1  N          0.47603000       0.47430150       0.08286800
     2  N          0.52397000       0.52569850       0.91713200
     3  C          0.26824000       0.45613180       0.12331900
     4  C          0.73176000       0.54386820       0.87668100
     5  H          0.14910000       0.37800000       0.12020000
     6  H          0.85090000       0.62200000       0.87980000
     7  C          0.25134000       0.56458170       0.16933900
     8  C          0.74866000       0.43541830       0.83066100
     9  N          0.46183000       0.65256140       0.15534800
    10  N          0.53817000       0.34743860       0.84465200
    11  N          0.53113000       0.77426140       0.18775800
    12  N          0.46887000       0.22573860       0.81224200
    13  C          0.74894000       0.84041180       0.16919900
    14  C          0.25106000       0.15958820       0.83080100
    15  C          0.89704000       0.78982180       0.11514100
    16  C          0.10296000       0.21017820       0.88485900
    17  H          0.05060000       0.84120000       0.10270000
    18  H          0.94940000       0.15880000       0.89730000
    19  C          0.81854000       0.66847180       0.08151900
    20  C          0.18146000       0.33152820       0.91848100
    21  H          0.91200000       0.63430000       0.04450000
    22  H          0.08800000       0.36570000       0.95550000
    23  C          0.59484000       0.59452180       0.10290900
    24  C          0.40516000       0.40547820       0.89709100
    25  C          0.07214000       0.58571170       0.22438900
    26  C          0.92786000       0.41428830       0.77561100
    27  C          0.09034000       0.70205180       0.26882100
    28  C          0.90966000       0.29794820       0.73117900
    29  H          0.21690000       0.77240000       0.26220000
    30  H          0.78310000       0.22760000       0.73780000
    31  C          0.92556000       0.71577180       0.32233100
    32  C          0.07444000       0.28422820       0.67766900
    33  H          0.93960000       0.79510000       0.35230000
    34  H          0.06040000       0.20490000       0.64770000
    35  C          0.74086000       0.61358180       0.33194900
    36  C          0.25914000       0.38641820       0.66805100
    37  C          0.71456000       0.49750190       0.28770100
    38  C          0.28544000       0.50249810       0.71229900
    39  H          0.58520000       0.42800000       0.29410000
    40  H          0.41480000       0.57200000       0.70590000
    41  C          0.87846000       0.48415180       0.23422100
    42  C          0.12154000       0.51584820       0.76577900
    43  H          0.85980000       0.40510000       0.20370000
    44  H          0.14020000       0.59490000       0.79630000
    45  S          0.55700100       0.63049500       0.40552200
    46  S          0.44299900       0.36950500       0.59447800
    47  O          0.30867000       0.53738140       0.39039700
    48  O          0.69133000       0.46261860       0.60960300
    49  O          0.54227000       0.76039130       0.42525800
    50  O          0.45773000       0.23960870       0.57474200
    51  C          0.76816000       0.59488190       0.47071100
    52  C          0.23184000       0.40511810       0.52928900
    53  H          0.69730000       0.61350000       0.51610000
    54  H          0.30270000       0.38650000       0.48390000
    55  H          0.95140000       0.64510000       0.47360000
    56  H          0.04860000       0.35490000       0.52640000
    57  H          0.77350000       0.50620000       0.45880000
    58  H          0.22650000       0.49380000       0.54120000
    59  C          0.82864000       0.97001180       0.21140100
    60  C          0.17136000       0.02998820       0.78859900
    61  C          0.71564000      -0.00025820       0.27430100
    62  C          0.28436000       0.00025820       0.72569900
    63  H          0.58930000       0.93750000       0.28870000
    64  H          0.41070000       0.06250000       0.71130000
    65  C          0.78594000       0.11847180       0.31544100
    66  C          0.21406000       0.88152820       0.68455900
    67  C         -0.02656000       0.21149190       0.29672110
    68  C          0.02656000       0.78850810       0.70327890
    69  H          0.02390000       0.29250000       0.32590000
    70  H         -0.02390000       0.70750000       0.67410000
    71  C          0.08464000       0.18282000       0.23428110
    72  C          0.91536000       0.81718000       0.76571890
    73  H          0.21120000       0.24540000       0.22030000
    74  H          0.78880000       0.75460000       0.77970000
    75  C          0.01354000       0.06360190       0.19183110
    76  C         -0.01354000       0.93639810       0.80816890
    77  H          0.09160000       0.04580000       0.14920000
    78  H          0.90840000       0.95420000       0.85080000
    79  S          0.62937100       0.14834500       0.39368300
    80  S          0.37062900       0.85165500       0.60631700
    81  O          0.66683000       0.28154140       0.41586800
    82  O          0.33317000       0.71845860       0.58413200
    83  O          0.35843000       0.07361150       0.38056800
    84  O          0.64157000       0.92638850       0.61943200
    85  C          0.81004000       0.09002000       0.45553110
    86  C          0.18996000       0.90998000       0.54446890
    87  H          0.74400000       0.11060000       0.50140000
    88  H          0.25600000       0.88940000       0.49860000
    89  H          0.00310000       0.12780000       0.45910000
    90  H         -0.00310000       0.87220000       0.54090000
    91  H          0.78350000      -0.00070000       0.44050000
    92  H          0.21650000       0.00070000       0.55950000
    93  C          0.58334000       0.05890180       0.99201890
    94  C          0.41666000       0.94109820       0.00798110
    95  H          0.77720000       0.06370000       0.00620000
    96  H          0.22280000       0.93630000      -0.00620000
    97  H          0.55990000       0.05450000       0.94080000
    98  H          0.44010000       0.94550000       0.05920000
    99  C          0.50274000       0.17520190       0.02963100
   100  C          0.49726000       0.82479810       0.97036900
   101  O          0.31423000       0.17451140       0.06435900
   102  O          0.68577000       0.82548860       0.93564100
   103  O          0.65773000       0.27808130       0.01880800
   104  O          0.34227000       0.72191870       0.98119200
   105  H          0.60310000       0.34060000       0.03920000
   106  H          0.39690000       0.65940000       0.96080000
