data_DUFJIA
_symmetry_space_group_name_H-M    'P1'
_symmetry_Int_Tables_number       1
loop_
_symmetry_equiv_pos_site_id
_symmetry_equiv_pos_as_xyz
1 x,y,z
_cell_length_a                   10.097213
_cell_length_b                   10.663613
_cell_length_c                   11.128113
_cell_angle_alpha                103.2822
_cell_angle_beta                 109.6262
_cell_angle_gamma                97.5083
loop_
_atom_site_label
_atom_site_type_symbol
_atom_site_fract_x
_atom_site_fract_y
_atom_site_fract_z
     1  N          0.44906190       0.47927170       0.31403170
     2  N          0.55093810       0.52072830       0.68596830
     3  C          0.35762000       0.36122000       0.23312000
     4  C          0.64238000       0.63878000       0.76688000
     5  H          0.25850000       0.35150000       0.18120000
     6  H          0.74150000       0.64850000       0.81880000
     7  C          0.42612000       0.25789190       0.23577180
     8  C          0.57388000       0.74210810       0.76422820
     9  N          0.56705170       0.31696150       0.32219150
    10  N          0.43294830       0.68303850       0.67780850
    11  N          0.67584180       0.25454160       0.35926150
    12  N          0.32415820       0.74545840       0.64073850
    13  C          0.79792000       0.33132000       0.45045190
    14  C          0.20208000       0.66868000       0.54954810
    15  C          0.81812000       0.46932000       0.50872000
    16  C          0.18188000       0.53068000       0.49128000
    17  H          0.90790000       0.51880000       0.57640000
    18  H          0.09210000       0.48120000       0.42360000
    19  C          0.70832000       0.52962000       0.46712000
    20  C          0.29168000       0.47038000       0.53288000
    21  H          0.72030000       0.62220000       0.50270000
    22  H          0.27970000       0.37780000       0.49730000
    23  C          0.57632000       0.45122190       0.36955190
    24  C          0.42368000       0.54877810       0.63044810
    25  C          0.36902000       0.11586190       0.16923180
    26  C          0.63098000       0.88413810       0.83076820
    27  C          0.45412000       0.03072000       0.13872000
    28  C          0.54588000       0.96928000       0.86128000
    29  H          0.55520000       0.06300000       0.16700000
    30  H          0.44480000       0.93700000       0.83300000
    31  C          0.39172000       0.89838000       0.06712000
    32  C          0.60828000       0.10162000       0.93288000
    33  H          0.44960000       0.84070000       0.04510000
    34  H          0.55040000       0.15930000       0.95490000
    35  C          0.24452000       0.85137810       0.02801190
    36  C          0.75548000       0.14862190       0.97198810
    37  C          0.15832000       0.93338000       0.06262000
    38  C          0.84168000       0.06662000       0.93738000
    39  H          0.05810000       0.89950000       0.03850000
    40  H          0.94190000       0.10050000       0.96150000
    41  C          0.22112000       0.06512000       0.13282000
    42  C          0.77888000       0.93488000       0.86718000
    43  H          0.16320000       0.12200000       0.15670000
    44  H          0.83680000       0.87800000       0.84330000
    45  S          0.16763600       0.68382500       0.93456500
    46  S          0.83236400       0.31617500       0.06543500
    47  O          0.01863180       0.67037840       0.85362840
    48  O         -0.01863180       0.32962160       0.14637160
    49  O          0.26069190       0.63879850       0.86880840
    50  O          0.73930810       0.36120150       0.13119160
    51  C          0.17533000       0.60208000       0.05522000
    52  C          0.82467000       0.39792000       0.94478000
    53  H          0.11870000       0.63650000       0.10620000
    54  H          0.88130000       0.36350000       0.89380000
    55  H          0.27590000       0.61680000       0.11570000
    56  H          0.72410000       0.38320000       0.88430000
    57  H          0.13560000       0.50710000       0.01140000
    58  H          0.86440000       0.49290000      -0.01140000
    59  C          0.91782000       0.26312000       0.48872000
    60  C          0.08218000       0.73688000       0.51128000
    61  C         -0.00008000       0.28212000       0.62322000
    62  C          0.00008000       0.71788000       0.37678000
    63  H         -0.01920000       0.34000000       0.69100000
    64  H          0.01920000       0.66000000       0.30900000
    65  C          0.10982000       0.21542000       0.65652000
    66  C          0.89018000       0.78458000       0.34348000
    67  C          0.14352000       0.13432000       0.55902000
    68  C          0.85648000       0.86568000       0.44098000
    69  H          0.22030000       0.09070000       0.58340000
    70  H          0.77970000       0.90930000       0.41660000
    71  C          0.06342000       0.11802000       0.42592000
    72  C          0.93658000       0.88198000       0.57408000
    73  H          0.08680000       0.06440000       0.35840000
    74  H          0.91320000       0.93560000       0.64160000
    75  C          0.94972000       0.17932000       0.39062000
    76  C          0.05028000       0.82068000       0.60938000
    77  H          0.89280000       0.16440000       0.29900000
    78  H          0.10720000       0.83560000       0.70100000
    79  S          0.20846600       0.23085500       0.82546500
    80  S          0.79153400       0.76914500       0.17453500
    81  O          0.12480170       0.27899160       0.90103150
    82  O          0.87519830       0.72100840       0.09896850
    83  O          0.25213180       0.10945150       0.83377160
    84  O          0.74786820       0.89054850       0.16622840
    85  C          0.36422000       0.35482000       0.87122000
    86  C          0.63578000       0.64518000       0.12878000
    87  H          0.42620000       0.36800000       0.96440000
    88  H          0.57380000       0.63200000       0.03560000
    89  H          0.33650000       0.43760000       0.86100000
    90  H          0.66350000       0.56240000       0.13900000
    91  H          0.41690000       0.32780000       0.81360000
    92  H          0.58310000       0.67220000       0.18640000
    93  C          0.43692000       0.94252000       0.45762000
    94  C          0.56308000       0.05748000       0.54238000
    95  H          0.36350000       0.94230000       0.49830000
    96  H          0.63650000       0.05770000       0.50170000
    97  H          0.39240000       0.95430000       0.36810000
    98  H          0.60760000       0.04570000       0.63190000
    99  C          0.47902000       0.81192000       0.44252000
   100  C          0.52098000       0.18808000       0.55748000
   101  O          0.59657180       0.79871160       0.51043190
   102  O          0.40342820       0.20128840       0.48956810
   103  O          0.37334180       0.71204150       0.35839170
   104  O          0.62665820       0.28795850       0.64160830
   105  H          0.40230000       0.64150000       0.35510000
   106  H          0.59770000       0.35850000       0.64490000
