data_DUFNEA
_symmetry_space_group_name_H-M    'P1'
_symmetry_Int_Tables_number       1
loop_
_symmetry_equiv_pos_site_id
_symmetry_equiv_pos_as_xyz
1 x,y,z
_cell_length_a                   9.678839
_cell_length_b                   10.1025512
_cell_length_c                   13.6785616
_cell_angle_alpha                74.33331
_cell_angle_beta                 86.63929
_cell_angle_gamma                74.64689
loop_
_atom_site_label
_atom_site_type_symbol
_atom_site_fract_x
_atom_site_fract_y
_atom_site_fract_z
     1  Br        -0.00470700       0.78931200       0.89786800
     2  Br         0.00470700       0.21068800       0.10213200
     3  S          0.63975700       0.02650600       0.09451400
     4  S          0.36024300       0.97349400       0.90548600
     5  N          0.79406160       0.47966150       0.40255110
     6  N          0.20593840       0.52033850       0.59744890
     7  N          0.75768160       0.70906150       0.39572110
     8  N          0.24231840       0.29093850       0.60427890
     9  N          0.66597190       0.89336170       0.19379130
    10  N          0.33402810       0.10663830       0.80620870
    11  N          0.75412000       0.96370190       0.01705140
    12  N          0.24588000       0.03629810       0.98294860
    13  C          0.76214180       0.49284180       0.50017130
    14  C          0.23785820       0.50715820       0.49982870
    15  C          0.74024190       0.63505180       0.49458130
    16  C          0.25975810       0.36494820       0.50541870
    17  C          0.78926190       0.61479180       0.34230130
    18  C          0.21073810       0.38520820       0.65769870
    19  C          0.80840190       0.34923180       0.37418130
    20  C          0.19159810       0.65076820       0.62581870
    21  C          0.93532000       0.24322000       0.39448160
    22  C          0.06468000       0.75678000       0.60551840
    23  H          0.01430000       0.25790000       0.42280000
    24  H          0.98570000       0.74210000       0.57720000
    25  C          0.94452000       0.11492000       0.37246170
    26  C          0.05548000       0.88508000       0.62753830
    27  H          0.03060000       0.04270000       0.38540000
    28  H          0.96940000       0.95730000       0.61460000
    29  C          0.82883000       0.09272000       0.33201170
    30  C          0.17117000       0.90728000       0.66798830
    31  H          0.83510000       0.00480000       0.31860000
    32  H          0.16490000      -0.00480000       0.68140000
    33  C          0.70353000       0.19973000       0.31122000
    34  C          0.29647000       0.80027000       0.68878000
    35  H          0.62460000       0.18480000       0.28270000
    36  H          0.37540000       0.81520000       0.71730000
    37  C          0.69282000       0.32912000       0.33191170
    38  C          0.30718000       0.67088000       0.66808830
    39  H          0.60740000       0.40220000       0.31720000
    40  H          0.39260000       0.59780000       0.68280000
    41  C          0.75389190       0.37164170       0.58737120
    42  C          0.24610810       0.62835830       0.41262880
    43  C          0.62312000       0.34416190       0.61726150
    44  C          0.37688000       0.65583810       0.38273850
    45  H          0.54080000       0.39440000       0.57680000
    46  H          0.45920000       0.60560000       0.42320000
    47  C          0.61312000       0.24242000       0.70686160
    48  C          0.38688000       0.75758000       0.29313840
    49  H          0.52400000       0.22390000       0.72700000
    50  H          0.47600000       0.77610000       0.27300000
    51  C          0.73333000       0.16862000       0.76635150
    52  C          0.26667000       0.83138000       0.23364850
    53  H          0.72570000       0.10210000       0.82810000
    54  H          0.27430000       0.89790000       0.17190000
    55  C          0.86393000       0.19222000       0.73557160
    56  C          0.13607000       0.80778000       0.26442840
    57  H          0.94620000       0.14010000       0.77550000
    58  H          0.05380000       0.85990000       0.22450000
    59  C          0.87522000       0.29232000       0.64580150
    60  C          0.12478000       0.70768000       0.35419850
    61  H          0.96540000       0.30670000       0.62430000
    62  H          0.03460000       0.69330000       0.37570000
    63  C          0.70603190       0.71032180       0.57487140
    64  C          0.29396810       0.28967820       0.42512860
    65  C          0.67132000       0.85882000       0.54704160
    66  C          0.32868000       0.14118000       0.45295840
    67  H          0.66490000       0.90810000       0.47790000
    68  H          0.33510000       0.09190000       0.52210000
    69  C          0.64643000       0.93432000       0.61946180
    70  C          0.35357000       0.06568000       0.38053820
    71  H          0.62370000       0.03430000       0.59920000
    72  H          0.37630000       0.96570000       0.40080000
    73  C          0.65462000       0.86372000       0.72187170
    74  C          0.34538000       0.13628000       0.27812830
    75  H          0.63910000       0.91510000       0.77120000
    76  H          0.36090000       0.08490000       0.22880000
    77  C          0.68562000       0.71702000       0.75065160
    78  C          0.31438000       0.28298000       0.24934840
    79  H          0.68930000       0.66850000       0.81990000
    80  H          0.31070000       0.33150000       0.18010000
    81  C          0.71132000       0.64082000       0.67839150
    82  C          0.28868000       0.35918000       0.32160850
    83  H          0.73270000       0.54090000       0.69920000
    84  H          0.26730000       0.45910000       0.30080000
    85  C          0.83005190       0.64963180       0.23530130
    86  C          0.16994810       0.35036820       0.76469870
    87  C          0.77032000       0.78930190       0.17012140
    88  C          0.22968000       0.21069810       0.82987860
    89  C          0.81982000       0.82992000       0.06850140
    90  C          0.18018000       0.17008000       0.93149860
    91  C          0.92962000       0.73242000       0.03122140
    92  C          0.07038000       0.26758000       0.96877860
    93  C          0.98412000       0.60042000       0.09367150
    94  C          0.01588000       0.39958000       0.90632850
    95  H          0.05630000       0.53450000       0.06970000
    96  H          0.94370000       0.46550000       0.93030000
    97  C          0.93442000       0.56022000       0.19401140
    98  C          0.06558000       0.43978000       0.80598860
    99  H          0.97480000       0.46770000       0.23430000
   100  H          0.02520000       0.53230000       0.76570000
   101  C          0.50984000       0.56984000       0.07123000
   102  C          0.49016000       0.43016000       0.92877000
   103  H          0.51680000       0.61740000       0.12030000
   104  H          0.48320000       0.38260000       0.87970000
   105  C          0.38133000       0.59623000       0.02282000
   106  C          0.61867000       0.40377000       0.97718000
   107  H          0.30030000       0.66200000       0.03830000
   108  H          0.69970000       0.33800000       0.96170000
   109  C          0.37183000       0.52634000       0.95187000
   110  C          0.62817000       0.47366000       0.04813000
   111  H          0.28390000       0.54390000       0.91870000
   112  H          0.71610000       0.45610000       0.08130000
