data_DUFZAJ
_symmetry_space_group_name_H-M    'P1'
_symmetry_Int_Tables_number       1
loop_
_symmetry_equiv_pos_site_id
_symmetry_equiv_pos_as_xyz
1 x,y,z
_cell_length_a                   4.81642
_cell_length_b                   11.54865
_cell_length_c                   11.58355
_cell_angle_alpha                96.2422
_cell_angle_beta                 98.9272
_cell_angle_gamma                100.9272
loop_
_atom_site_label
_atom_site_type_symbol
_atom_site_fract_x
_atom_site_fract_y
_atom_site_fract_z
     1  C          0.49155000       0.31521180       0.33323180
     2  C          0.50845000       0.68478820       0.66676820
     3  C          0.34375000       0.40256180       0.36030180
     4  C          0.65625000       0.59743820       0.63969820
     5  H          0.26740000       0.40670000       0.42930000
     6  H          0.73260000       0.59330000       0.57070000
     7  C          0.31075000       0.48520180       0.28169190
     8  C          0.68925000       0.51479820       0.71830810
     9  C          0.41105000       0.48359180       0.17721190
    10  C          0.58895000       0.51640820       0.82278810
    11  H          0.38250000       0.53900000       0.12640000
    12  H          0.61750000       0.46100000       0.87360000
    13  C          0.55835000       0.39367190       0.15183180
    14  C          0.44165000       0.60632810       0.84816820
    15  C          0.60224000       0.31061170       0.22831180
    16  C          0.39776000       0.68938830       0.77168820
    17  N          0.15235000       0.57734180       0.31215190
    18  N          0.84765000       0.42265820       0.68784810
    19  N          0.52805000       0.22835170       0.41312170
    20  N          0.47195000       0.77164830       0.58687830
    21  N          0.75034000       0.24055160       0.17354160
    22  N          0.24966000       0.75944840       0.82645840
    23  H          0.80570000       0.18050000       0.20020000
    24  H          0.19430000       0.81950000       0.79980000
    25  N          0.79925000       0.27817180       0.07069180
    26  N          0.20075000       0.72182820       0.92930820
    27  N          0.68525000       0.36963180       0.05555170
    28  N          0.31475000       0.63036820       0.94444830
    29  O          0.04595000       0.57527180       0.40052000
    30  O          0.95405000       0.42472820       0.59948000
    31  O          0.13287000       0.65162000       0.24662000
    32  O          0.86713000       0.34838000       0.75338000
    33  O          0.41025000       0.22885180       0.49729180
    34  O          0.58975000       0.77114820       0.50270820
    35  O          0.68095000       0.15880170       0.38855180
    36  O          0.31905000       0.84119830       0.61144820
    37  S          0.10433120       0.95347500       0.20937500
    38  S          0.89566880       0.04652500       0.79062500
    39  C          0.81153000       0.86293000       0.10973000
    40  C          0.18847000       0.13707000       0.89027000
    41  H          0.82280000       0.78080000       0.10980000
    42  H          0.17720000       0.21920000       0.89020000
    43  H          0.81670000       0.88330000       0.03180000
    44  H          0.18330000       0.11670000       0.96820000
    45  H          0.63530000       0.87510000       0.13300000
    46  H          0.36470000       0.12490000       0.86700000
    47  C         -0.00481000       0.92113000       0.34333000
    48  C          0.00481000       0.07887000       0.65667000
    49  H          0.81090000       0.94060000       0.34580000
    50  H          0.18910000       0.05940000       0.65420000
    51  H          0.13360000       0.96730000       0.40860000
    52  H          0.86640000       0.03270000       0.59140000
    53  H         -0.01810000       0.83780000       0.34820000
    54  H          0.01810000       0.16220000       0.65180000
    55  O          0.08044000       0.08039150       0.20024180
    56  O          0.91956000       0.91960850       0.79975820
