data_DUJJUP
_symmetry_space_group_name_H-M    'P1'
_symmetry_Int_Tables_number       1
loop_
_symmetry_equiv_pos_site_id
_symmetry_equiv_pos_as_xyz
1 x,y,z
_cell_length_a                   5.43924
_cell_length_b                   12.55861
_cell_length_c                   17.083813
_cell_angle_alpha                105.5853
_cell_angle_beta                 93.7622
_cell_angle_gamma                90.8372
loop_
_atom_site_label
_atom_site_type_symbol
_atom_site_fract_x
_atom_site_fract_y
_atom_site_fract_z
     1  N          0.25765000       0.07992000       0.97146180
     2  N          0.74235000       0.92008000       0.02853820
     3  C          0.09616000      -0.00483000       0.97132190
     4  C          0.90384000       0.00483000       0.02867810
     5  N          0.13796000       0.90448000       0.91402180
     6  N          0.86204000       0.09552000       0.08597820
     7  C          0.33397000       0.93117000       0.87542000
     8  C          0.66603000       0.06883000       0.12458000
     9  H          0.40560000       0.88210000       0.83100000
    10  H          0.59440000       0.11790000       0.16900000
    11  C          0.41097000       0.03853000       0.90992000
    12  C          0.58903000       0.96147000       0.09008000
    13  H          0.54330000       0.07700000       0.89470000
    14  H          0.45670000       0.92300000       0.10530000
    15  N          0.83026000       0.40273000       0.90743190
    16  N          0.16974000       0.59727000       0.09256810
    17  C          0.02027000       0.34903000       0.87152000
    18  C         -0.02027000       0.65097000       0.12848000
    19  H          0.05580000       0.35720000       0.81970000
    20  H          0.94420000       0.64280000       0.18030000
    21  C          0.16877000       0.28203000       0.90562000
    22  C          0.83123000       0.71797000       0.09438000
    23  H          0.30270000       0.24570000       0.87790000
    24  H          0.69730000       0.75430000       0.12210000
    25  C          0.11766000       0.26863000       0.98162000
    26  C          0.88234000       0.73137000       0.01838000
    27  C          0.92176000       0.32483000       0.01922000
    28  C          0.07824000       0.67517000       0.98078000
    29  H          0.88120000       0.31820000       0.07100000
    30  H          0.11880000       0.68180000       0.92900000
    31  C          0.78517000       0.39083000       0.98072000
    32  C          0.21483000       0.60917000       0.01928000
    33  H          0.65260000       0.42950000       0.00770000
    34  H          0.34740000       0.57050000      -0.00770000
    35  C          0.27226000       0.19513000       0.02132000
    36  C          0.72774000       0.80487000       0.97868000
    37  H          0.44610000       0.22240000       0.02900000
    38  H          0.55390000       0.77760000       0.97100000
    39  H          0.21380000       0.19880000       0.07560000
    40  H          0.78620000       0.80120000       0.92440000
    41  C          0.31307000       0.57713000       0.73132000
    42  C          0.68693000       0.42287000       0.26868000
    43  I          0.55550400       0.51065118       0.81014713
    44  I          0.44449600       0.48934882       0.18985287
    45  F          0.18685000       0.66042000       0.77692150
    46  F          0.81315000       0.33958000       0.22307850
    47  F          0.14814000       0.49852000       0.69051160
    48  F          0.85186000       0.50148000       0.30948840
    49  C          0.45056000       0.62233000       0.67042000
    50  C          0.54944000       0.37767000       0.32958000
    51  F          0.58954000       0.71015190       0.71310140
    52  F          0.41046000       0.28984810       0.28689860
    53  F          0.60094000       0.54492000       0.63160140
    54  F          0.39906000       0.45508000       0.36839860
    55  C          0.28036000       0.65473000       0.60412000
    56  C          0.71964000       0.34527000       0.39588000
    57  F          0.09945000       0.71642000       0.64045160
    58  F          0.90055000       0.28358000       0.35954840
    59  F          0.17915000       0.56122000       0.55387160
    60  F          0.82085000       0.43878000       0.44612840
    61  C          0.40996000       0.72033000       0.55252000
    62  C          0.59004000       0.27967000       0.44748000
    63  F          0.50576000       0.81482000       0.60340150
    64  F          0.49424000       0.18518000       0.39659850
    65  F          0.59454000       0.66102000       0.51725160
    66  F          0.40546000       0.33898000       0.48274840
    67  C          0.24006000       0.75053000       0.48602000
    68  C          0.75994000       0.24947000       0.51398000
    69  F          0.07755000       0.82322000       0.52286160
    70  F          0.92245000       0.17678000       0.47713840
    71  F          0.11695000       0.66032000       0.44050150
    72  F          0.88305000       0.33968000       0.55949850
    73  C          0.38106000       0.80193000       0.42762000
    74  C          0.61894000       0.19807000       0.57238000
    75  F          0.54904000       0.87732000       0.47145150
    76  F          0.45096000       0.12268000       0.52854850
    77  F          0.49785000       0.72092000       0.37745140
    78  F          0.50215000       0.27908000       0.62254860
    79  C          0.21156000       0.85983000       0.37512000
    80  C          0.78844000       0.14017000       0.62488000
    81  F          0.12584000       0.95145180       0.42494130
    82  F          0.87416000       0.04854820       0.57505870
    83  F          0.02014000       0.79098190       0.34041130
    84  F         -0.02014000       0.20901810       0.65958870
    85  C          0.34137000       0.89393000       0.30752000
    86  C          0.65863000       0.10607000       0.69248000
    87  I          0.10131400      -0.01200800       0.24775014
    88  I          0.89868600       0.01200800       0.75224986
    89  F          0.54614000       0.95422000       0.33985150
    90  F          0.45386000       0.04578000       0.66014850
    91  F          0.40485000       0.80351190       0.25172140
    92  F          0.59515000       0.19648810       0.74827860
