data_DUJKAW
_symmetry_space_group_name_H-M    'P1'
_symmetry_Int_Tables_number       1
loop_
_symmetry_equiv_pos_site_id
_symmetry_equiv_pos_as_xyz
1 x,y,z
_cell_length_a                   5.67259
_cell_length_b                   7.818512
_cell_length_c                   14.9832
_cell_angle_alpha                89.4057
_cell_angle_beta                 85.6126
_cell_angle_gamma                74.8236
loop_
_atom_site_label
_atom_site_type_symbol
_atom_site_fract_x
_atom_site_fract_y
_atom_site_fract_z
     1  N          0.39575000       0.52133000       0.24919170
     2  N          0.60425000       0.47867000       0.75080830
     3  C          0.42676000       0.66274000       0.20402000
     4  C          0.57324000       0.33726000       0.79598000
     5  H          0.36130000       0.68420000       0.14720000
     6  H          0.63870000       0.31580000       0.85280000
     7  C          0.54756000       0.77964000       0.23447190
     8  C          0.45244000       0.22036000       0.76552810
     9  H          0.56010000       0.88040000       0.20040000
    10  H          0.43990000       0.11960000       0.79960000
    11  C          0.65035000       0.74693000       0.31597170
    12  C          0.34965000       0.25307000       0.68402830
    13  C          0.62155000       0.59933000       0.36310180
    14  C          0.37845000       0.40067000       0.63689820
    15  H          0.68830000       0.57250000       0.41940000
    16  H          0.31170000       0.42750000       0.58060000
    17  C          0.49355000       0.49133000       0.32680190
    18  C          0.50645000       0.50867000       0.67319810
    19  H          0.47540000       0.39030000       0.35960000
    20  H          0.52460000       0.60970000       0.64040000
    21  C          0.79125000       0.86963000       0.34907170
    22  C          0.20875000       0.13037000       0.65092830
    23  H          0.96100000       0.83440000       0.32110000
    24  H          0.03900000       0.16560000       0.67890000
    25  H          0.71470000      -0.00810000       0.33010000
    26  H          0.28530000       0.00810000       0.66990000
    27  N          0.79824000       0.86723000       0.44600140
    28  N          0.20176000       0.13277000       0.55399860
    29  C          0.61884000       0.94433000       0.51004160
    30  C          0.38116000       0.05567000       0.48995840
    31  N          0.68684000       0.90363000       0.59152150
    32  N          0.31316000       0.09637000       0.40847850
    33  C          0.92095000       0.79713000       0.57902190
    34  C          0.07905000       0.20287000       0.42097810
    35  H          0.01990000       0.74670000       0.62590000
    36  H          0.98010000       0.25330000       0.37410000
    37  C         -0.00845000       0.77364000       0.49082000
    38  C          0.00845000       0.22636000       0.50918000
    39  H          0.14510000       0.70540000       0.46500000
    40  H          0.85490000       0.29460000       0.53500000
    41  C          0.91434000       0.19014000       0.09532000
    42  C          0.08566000       0.80986000       0.90468000
    43  I          0.12816300       0.33068200       0.16198711
    44  I          0.87183700       0.66931800       0.83801289
    45  F          0.80915000       0.09974000       0.15506160
    46  F          0.19085000       0.90026000       0.84493840
    47  F          0.73046000       0.30503000       0.05671180
    48  F          0.26954000       0.69497000       0.94328820
    49  C          0.06694000       0.06213000       0.02223160
    50  C          0.93306000       0.93787000       0.97776840
    51  F          0.26423000       0.96008000       0.05675140
    52  F          0.73577000       0.03992000       0.94324860
    53  F          0.14144000       0.16262000       0.95878890
    54  F          0.85856000       0.83738000       0.04121110
