data_DUJKEA
_symmetry_space_group_name_H-M    'P1'
_symmetry_Int_Tables_number       1
loop_
_symmetry_equiv_pos_site_id
_symmetry_equiv_pos_as_xyz
1 x,y,z
_cell_length_a                   5.54568
_cell_length_b                   12.359517
_cell_length_c                   14.7722
_cell_angle_alpha                100.1444
_cell_angle_beta                 94.6004
_cell_angle_gamma                92.3214
loop_
_atom_site_label
_atom_site_type_symbol
_atom_site_fract_x
_atom_site_fract_y
_atom_site_fract_z
     1  N          0.81723000       0.41280150       0.89573130
     2  N          0.18277000       0.58719850       0.10426870
     3  C          0.00034000       0.36454180       0.85434150
     4  C         -0.00034000       0.63545820       0.14565850
     5  H          0.02850000       0.37780000       0.79450000
     6  H          0.97150000       0.62220000       0.20550000
     7  C          0.15144000       0.29603170       0.89420150
     8  C          0.84856000       0.70396830       0.10579850
     9  H          0.28120000       0.26430000       0.86260000
    10  H          0.71880000       0.73570000       0.13740000
    11  C          0.11083000       0.27432150       0.98097130
    12  C          0.88917000       0.72567850       0.01902870
    13  C          0.92214000       0.32481160       0.02458140
    14  C          0.07786000       0.67518840       0.97541860
    15  H          0.88940000       0.31280000       0.08430000
    16  H          0.11060000       0.68720000       0.91570000
    17  C          0.78144000       0.39328170       0.97980160
    18  C          0.21856000       0.60671830       0.02019840
    19  H          0.65320000       0.42790000       0.01060000
    20  H          0.34680000       0.57210000       0.98940000
    21  C          0.26714000       0.19808160       0.02638140
    22  C          0.73286000       0.80191840       0.97361860
    23  H          0.43710000       0.22840000       0.03550000
    24  H          0.56290000       0.77160000       0.96450000
    25  H          0.21200000       0.19360000       0.08780000
    26  H          0.78800000       0.80640000       0.91220000
    27  N          0.25553000       0.08776130       0.97031120
    28  N          0.74447000       0.91223870       0.02968880
    29  C          0.09473000      -0.00008150       0.96879130
    30  C          0.90527000       0.00008150       0.03120870
    31  N          0.13903000       0.91568860       0.90491120
    32  N          0.86097000       0.08431140       0.09508880
    33  C          0.33374000       0.95027820       0.86327150
    34  C          0.66626000       0.04972180       0.13672850
    35  H          0.40600000       0.90720000       0.81400000
    36  H          0.59400000       0.09280000       0.18600000
    37  C          0.40764000       0.05540170       0.90314150
    38  C          0.59236000       0.94459830       0.09685850
    39  H          0.53920000       0.09810000       0.88750000
    40  H          0.46080000       0.90190000       0.11250000
    41  C          0.30154000       0.60042000       0.68949170
    42  C          0.69846000       0.39958000       0.31050830
    43  I          0.54197200       0.52991411       0.78228390
    44  I          0.45802800       0.47008589       0.21771610
    45  F          0.16244000       0.67162000       0.73759150
    46  F          0.83756000       0.32838000       0.26240850
    47  F          0.15594000       0.51882000       0.63871160
    48  F          0.84406000       0.48118000       0.36128840
    49  C          0.43554000       0.66131160       0.62402140
    50  C          0.56446000       0.33868840       0.37597860
    51  F          0.57354000       0.74337140       0.67755110
    52  F          0.42646000       0.25662860       0.32244890
    53  F          0.58093000       0.59310140       0.57790110
    54  F          0.41907000       0.40689860       0.42209890
    55  C          0.26934000       0.71072000       0.55399160
    56  C          0.73066000       0.28928000       0.44600840
    57  F          0.14124000       0.78612000       0.60077150
    58  F          0.85876000       0.21388000       0.39922850
    59  F          0.11714000       0.63022000       0.50670160
    60  F          0.88286000       0.36978000       0.49329840
    61  C          0.40254000       0.76347170       0.48257140
    62  C          0.59746000       0.23652830       0.51742860
    63  F          0.58143000       0.83308150       0.52777120
    64  F          0.41857000       0.16691850       0.47222880
    65  F          0.50094000       0.68386150       0.42681110
    66  F          0.49906000       0.31613850       0.57318890
    67  C          0.23634000       0.82729170       0.42296130
    68  C          0.76366000       0.17270830       0.57703870
    69  F          0.15663000       0.91351130       0.47793100
    70  F          0.84337000       0.08648870       0.52206900
    71  F          0.04573000       0.76048140       0.38361110
    72  F          0.95427000       0.23951860       0.61638890
    73  C          0.35994000       0.87092180       0.34493140
    74  C          0.64006000       0.12907820       0.65506860
    75  I          0.11925300       0.96607212       0.27379410
    76  I          0.88074700       0.03392788       0.72620590
    77  F          0.55933000       0.93220150       0.38082120
    78  F          0.44067000       0.06779850       0.61917880
    79  F          0.42723000       0.78561130       0.28443100
    80  F          0.57277000       0.21438870       0.71556900
