data_DUJKIE
_symmetry_space_group_name_H-M    'P1'
_symmetry_Int_Tables_number       1
loop_
_symmetry_equiv_pos_site_id
_symmetry_equiv_pos_as_xyz
1 x,y,z
_cell_length_a                   5.83604
_cell_length_b                   13.03459
_cell_length_c                   18.974213
_cell_angle_alpha                77.1263
_cell_angle_beta                 88.7173
_cell_angle_gamma                79.6103
loop_
_atom_site_label
_atom_site_type_symbol
_atom_site_fract_x
_atom_site_fract_y
_atom_site_fract_z
     1  I          0.25997500       0.57834200       0.30368616
     2  I          0.74002500       0.42165800       0.69631384
     3  I          0.37746500       0.89478200       0.69608916
     4  I          0.62253500       0.10521800       0.30391084
     5  F          0.81715000       0.71562000       0.30692150
     6  F          0.18285000       0.28438000       0.69307850
     7  F          0.82245000       0.55942000       0.37767160
     8  F          0.17755000       0.44058000       0.62232840
     9  F          0.11634000       0.76132000       0.39942140
    10  F          0.88366000       0.23868000       0.60057860
    11  F          0.13414000       0.60141190       0.46837140
    12  F          0.86586000       0.39858810       0.53162860
    13  F          0.62586000       0.78882000       0.41433140
    14  F          0.37414000       0.21118000       0.58566860
    15  F          0.68305000       0.63952000       0.49608150
    16  F          0.31695000       0.36048000       0.50391850
    17  F          0.87815000       0.87972190       0.48559150
    18  F          0.12185000       0.12027810       0.51440850
    19  F          0.02224000       0.72982000       0.55982140
    20  F          0.97776000       0.27018000       0.44017860
    21  F          0.42566000       0.82692000       0.53660140
    22  F          0.57434000       0.17308000       0.46339860
    23  F          0.63215000       0.70858190       0.62163140
    24  F          0.36785000       0.29141810       0.37836860
    25  F          0.61655000       0.98459190       0.56965140
    26  F          0.38345000       0.01540810       0.43034860
    27  F          0.85326000       0.86962000       0.64696140
    28  F          0.14674000       0.13038000       0.35303860
    29  C          0.94872000       0.63744000       0.35613000
    30  C          0.05128000       0.36256000       0.64387000
    31  C         -0.00268000       0.68033000       0.42183000
    32  C          0.00268000       0.31967000       0.57817000
    33  C          0.78112000       0.72293000       0.46323000
    34  C          0.21888000       0.27707000       0.53677000
    35  C          0.83112000       0.78353000       0.52073000
    36  C          0.16888000       0.21647000       0.47927000
    37  C          0.62872000       0.80273000       0.57362000
    38  C          0.37128000       0.19727000       0.42638000
    39  C          0.63962000       0.88933000       0.61632000
    40  C          0.36038000       0.11067000       0.38368000
    41  N          0.65007000       0.50593000       0.22752000
    42  N          0.34993000       0.49407000       0.77248000
    43  N          0.00466000       0.69953000       0.06801190
    44  N         -0.00466000       0.30047000       0.93198810
    45  N          0.83496000       0.86813000       0.02315190
    46  N          0.16504000       0.13187000       0.97684810
    47  N          0.63536000       0.62893000      -0.00688190
    48  N          0.36464000       0.37107000       0.00688190
    49  N          0.49556000       0.79763000       0.93838810
    50  N          0.50444000       0.20237000       0.06161190
    51  N          0.94897000       0.95183000       0.79298000
    52  N          0.05103000       0.04817000       0.20702000
    53  C          0.74398000       0.40254000       0.25243000
    54  C          0.25602000       0.59746000       0.74757000
    55  H          0.67180000       0.36160000       0.29150000
    56  H          0.32820000       0.63840000       0.70850000
    57  C          0.94269000       0.35304000       0.22313000
    58  C          0.05731000       0.64696000       0.77687000
    59  H          0.00280000       0.27920000       0.24130000
    60  H         -0.00280000       0.72080000       0.75870000
    61  C          0.05108000       0.41213000       0.16762000
    62  C          0.94892000       0.58787000       0.83238000
    63  H          0.18880000       0.37990000       0.14760000
    64  H          0.81120000       0.62010000       0.85240000
    65  C          0.95637000       0.52013000       0.14072000
    66  C          0.04363000       0.47987000       0.85928000
    67  C          0.75718000       0.56183000       0.17352000
    68  C          0.24282000       0.43817000       0.82648000
    69  H          0.69260000       0.63530000       0.15620000
    70  H          0.30740000       0.36470000       0.84380000
    71  C          0.07568000       0.58333000       0.07982000
    72  C          0.92432000       0.41667000       0.92018000
    73  H          0.24580000       0.56490000       0.08940000
    74  H          0.75420000       0.43510000       0.91060000
    75  H          0.04470000       0.56140000       0.03470000
    76  H          0.95530000       0.43860000       0.96530000
    77  C          0.12958000       0.76413000       0.09312000
    78  C          0.87042000       0.23587000       0.90688000
    79  H          0.26400000       0.74170000       0.12380000
    80  H          0.73600000       0.25830000       0.87620000
    81  C          0.02278000       0.86653000       0.06542000
    82  C          0.97722000       0.13347000       0.93458000
    83  H          0.07180000       0.92830000       0.07410000
    84  H          0.92820000       0.07170000       0.92590000
    85  C          0.82528000       0.76693000       0.02532000
    86  C          0.17472000       0.23307000       0.97468000
    87  C          0.65637000       0.73043000       0.98728000
    88  C          0.34363000       0.26957000       0.01272000
    89  C          0.45637000       0.63143000       0.94598000
    90  C          0.54363000       0.36857000       0.05402000
    91  H          0.40010000       0.57060000       0.93850000
    92  H          0.59990000       0.42940000       0.06150000
    93  C          0.37338000       0.73393000       0.91198000
    94  C          0.62662000       0.26607000       0.08802000
    95  H          0.25220000       0.75720000       0.87630000
    96  H          0.74780000       0.24280000       0.12370000
    97  C          0.44267000       0.91473000       0.91898000
    98  C          0.55733000       0.08527000       0.08102000
    99  H          0.45940000       0.94230000       0.96280000
   100  H          0.54060000       0.05770000       0.03720000
   101  H          0.27800000       0.93760000       0.90220000
   102  H          0.72200000       0.06240000       0.09780000
   103  C          0.59527000       0.96453000       0.86098000
   104  C          0.40473000       0.03547000       0.13902000
   105  C          0.80718000       0.91043000       0.84308000
   106  C          0.19282000       0.08957000       0.15692000
   107  H          0.85520000       0.83830000       0.86850000
   108  H          0.14480000       0.16170000       0.13150000
   109  C          0.87698000       0.05254000       0.75617000
   110  C          0.12302000       0.94746000       0.24383000
   111  H          0.97370000       0.08400000       0.71980000
   112  H          0.02630000       0.91600000       0.28020000
   113  C          0.66488000       0.11244000       0.76947000
   114  C          0.33512000       0.88756000       0.23053000
   115  H          0.61750000       0.18350000       0.74230000
   116  H          0.38250000       0.81650000       0.25770000
   117  C          0.52458000       0.06843000       0.82208000
   118  C          0.47542000       0.93157000       0.17792000
   119  H          0.37970000       0.10890000       0.83190000
   120  H          0.62030000       0.89110000       0.16810000
