data_DUJLIF
_symmetry_space_group_name_H-M    'P1'
_symmetry_Int_Tables_number       1
loop_
_symmetry_equiv_pos_site_id
_symmetry_equiv_pos_as_xyz
1 x,y,z
_cell_length_a                   5.78683
_cell_length_b                   7.74964
_cell_length_c                   13.20378
_cell_angle_alpha                97.399016
_cell_angle_beta                 95.615315
_cell_angle_gamma                104.792416
loop_
_atom_site_label
_atom_site_type_symbol
_atom_site_fract_x
_atom_site_fract_y
_atom_site_fract_z
     1  N          0.20373000       0.85172000       0.43238130
     2  N          0.79627000       0.14828000       0.56761870
     3  C          0.38353000       0.94752000       0.50931150
     4  C          0.61647000       0.05248000       0.49068850
     5  N          0.31613000       0.93352000       0.60166140
     6  N          0.68387000       0.06648000       0.39833860
     7  C          0.08484000       0.82393000       0.58285180
     8  C          0.91516000       0.17607000       0.41714820
     9  H         -0.01190000       0.78890000       0.63480000
    10  H          0.01190000       0.21110000       0.36520000
    11  C          0.01254000       0.77213000       0.48035180
    12  C         -0.01254000       0.22787000       0.51964820
    13  H          0.86030000       0.69600000       0.44800000
    14  H          0.13970000       0.30400000       0.55200000
    15  N          0.58504000       0.43553000       0.21882160
    16  N          0.41496000       0.56447000       0.78117840
    17  C          0.48834000       0.43023000       0.30638180
    18  C          0.51166000       0.56977000       0.69361820
    19  H          0.50360000       0.33790000       0.34540000
    20  H          0.49640000       0.66210000       0.65460000
    21  C          0.36684000       0.55223000       0.34332160
    22  C          0.63316000       0.44777000       0.65667840
    23  H          0.30030000       0.54280000       0.40600000
    24  H          0.69970000       0.45720000       0.59400000
    25  C          0.34334000       0.68853000       0.28760160
    26  C          0.65666000       0.31147000       0.71239840
    27  C          0.44305000       0.69473000       0.19707180
    28  C          0.55695000       0.30527000       0.80292820
    29  H          0.43130000       0.78590000       0.15670000
    30  H          0.56870000       0.21410000       0.84330000
    31  C          0.56125000       0.56563000       0.16553190
    32  C          0.43875000       0.43437000       0.83446810
    33  H          0.62820000       0.57080000       0.10270000
    34  H          0.37180000       0.42920000       0.89730000
    35  C          0.20904000       0.82463000       0.32168160
    36  C          0.79096000       0.17537000       0.67831840
    37  H          0.28680000       0.94170000       0.30100000
    38  H          0.71320000       0.05830000       0.69900000
    39  H          0.04140000       0.78290000       0.28590000
    40  H          0.95860000       0.21710000       0.71410000
    41  C          0.06984000       0.07613000       0.04293160
    42  C          0.93016000       0.92387000       0.95706840
    43  I          0.84926200       0.22096117       0.11992910
    44  I          0.15073800       0.77903883       0.88007090
    45  F          0.23943000       0.18979190       0.00214120
    46  F          0.76057000       0.81020810      -0.00214120
    47  F          0.18923000       0.00452000       0.11196110
    48  F          0.81077000      -0.00452000       0.88803890
