data_DUKBOC
_symmetry_space_group_name_H-M    'P1'
_symmetry_Int_Tables_number       1
loop_
_symmetry_equiv_pos_site_id
_symmetry_equiv_pos_as_xyz
1 x,y,z
_cell_length_a                   7.53872
_cell_length_b                   7.87162
_cell_length_c                   7.97436
_cell_angle_alpha                75.4695
_cell_angle_beta                 76.7595
_cell_angle_gamma                73.5145
loop_
_atom_site_label
_atom_site_type_symbol
_atom_site_fract_x
_atom_site_fract_y
_atom_site_fract_z
     1  C          0.64122000       0.73272000       0.14082000
     2  C          0.35878000       0.26728000       0.85918000
     3  C          0.73122000       0.60302000       0.92818000
     4  C          0.26878000       0.39698000       0.07182000
     5  O          0.77826190       0.73265180       0.36863190
     6  O          0.22173810       0.26734820       0.63136810
     7  O          0.50175180       0.91272160       0.34314180
     8  O          0.49824820       0.08727840       0.65685820
     9  N          0.63972000       0.79712000       0.29622000
    10  N          0.36028000       0.20288000       0.70378000
    11  N          0.49192000       0.78740180       0.06652000
    12  N          0.50808000       0.21259820       0.93348000
    13  N          0.55122000       0.70111190       0.92718000
    14  N          0.44878000       0.29888810       0.07282000
    15  H          0.47940000       0.71530000       0.85170000
    16  H          0.52060000       0.28470000       0.14830000
    17  N          0.79282000       0.62093190       0.06632000
    18  N          0.20718000       0.37906810       0.93368000
    19  N          0.82802000       0.50042000       0.81048000
    20  N          0.17198000       0.49958000       0.18952000
    21  H          0.95140000       0.44830000       0.81670000
    22  H          0.04860000       0.55170000       0.18330000
    23  H          0.78540000       0.52040000       0.71660000
    24  H          0.21460000       0.47960000       0.28340000
    25  C          0.89308000       0.17222000       0.28252000
    26  C          0.10692000       0.82778000       0.71748000
    27  C          0.98978000       0.03612000       0.07762000
    28  C          0.01022000       0.96388000       0.92238000
    29  O          0.60690830       0.35644160       0.36466170
    30  O          0.39309170       0.64355840       0.63533830
    31  O          0.82832810       0.31433170       0.51638180
    32  O          0.17167190       0.68566830       0.48361820
    33  N          0.76768000       0.28887190       0.39752000
    34  N          0.23232000       0.71112810       0.60248000
    35  N          0.83418000       0.14384180       0.14748190
    36  N          0.16582000       0.85615820       0.85251810
    37  N          0.12842000       0.00427190       0.16986190
    38  N          0.87158000      -0.00427190       0.83013810
    39  H          0.25740000       0.92740000       0.14640000
    40  H          0.74260000       0.07260000       0.85360000
    41  N          0.06832000       0.09296190       0.30562000
    42  N          0.93168000       0.90703810       0.69438000
