data_DULBIY
_symmetry_space_group_name_H-M    'P1'
_symmetry_Int_Tables_number       1
loop_
_symmetry_equiv_pos_site_id
_symmetry_equiv_pos_as_xyz
1 x,y,z
_cell_length_a                   9.9962
_cell_length_b                   15.1413
_cell_length_c                   9.647319
_cell_angle_alpha                90.0
_cell_angle_beta                 98.253
_cell_angle_gamma                90.0
loop_
_atom_site_label
_atom_site_type_symbol
_atom_site_fract_x
_atom_site_fract_y
_atom_site_fract_z
     1  S          0.95511600       0.07921300       0.68625400
     2  S          0.04488400       0.57921300       0.81374600
     3  S          0.04488400       0.92078700       0.31374600
     4  S          0.95511600       0.42078700       0.18625400
     5  S          0.36308400       0.83967300       0.77940400
     6  S          0.63691600       0.33967300       0.72059600
     7  S          0.63691600       0.16032700       0.22059600
     8  S          0.36308400       0.66032700       0.27940400
     9  Cl         0.42443400       0.91042300       0.09928400
    10  Cl         0.57556600       0.41042300       0.40071600
    11  Cl         0.57556600       0.08957700       0.90071600
    12  Cl         0.42443400       0.58957700       0.59928400
    13  O          0.00368130       0.10967900       0.56182120
    14  O         -0.00368130       0.60967900       0.93817880
    15  O         -0.00368130       0.89032100       0.43817880
    16  O          0.00368130       0.39032100       0.06182120
    17  O          0.84373880       0.01862800       0.66501130
    18  O          0.15626120       0.51862800       0.83498870
    19  O          0.15626120       0.98137200       0.33498870
    20  O          0.84373880       0.48137200       0.16501130
    21  O          0.30375130       0.82473800       0.63612120
    22  O          0.69624870       0.32473800       0.86387880
    23  O          0.69624870       0.17526200       0.36387880
    24  O          0.30375130       0.67526200       0.13612120
    25  O          0.50206120       0.86560900       0.80810130
    26  O          0.49793880       0.36560900       0.69189870
    27  O          0.49793880       0.13439100       0.19189870
    28  O          0.50206120       0.63439100       0.30810130
    29  N          0.90813850       0.16423100       0.76909150
    30  N          0.09186150       0.66423100       0.73090850
    31  N          0.09186150       0.83576900       0.23090850
    32  N          0.90813850       0.33576900       0.26909150
    33  N          0.05724150       0.14013100       0.98001150
    34  N          0.94275850       0.64013100       0.51998850
    35  N          0.94275850       0.85986900       0.01998850
    36  N          0.05724150       0.35986900       0.48001150
    37  H          0.07871900       0.15681200       0.06841100
    38  H          0.92128100       0.65681200       0.43158900
    39  H          0.92128100       0.84318800       0.93158900
    40  H          0.07871900       0.34318800       0.56841100
    41  N          0.34234150       0.75039100       0.86216150
    42  N          0.65765850       0.25039100       0.63783850
    43  N          0.65765850       0.24960900       0.13783850
    44  N          0.34234150       0.74960900       0.36216150
    45  H          0.36521800       0.75151300       0.95401000
    46  H          0.63478200       0.25151300       0.54599000
    47  H          0.63478200       0.24848700       0.04599000
    48  H          0.36521800       0.74848700       0.45401000
    49  H          0.26201300       0.72581200       0.83311700
    50  H          0.73798700       0.22581200       0.66688300
    51  H          0.73798700       0.27418800       0.16688300
    52  H          0.26201300       0.77418800       0.33311700
    53  C          0.96045820       0.18378110       0.89742180
    54  C          0.03954180       0.68378110       0.60257820
    55  C          0.03954180       0.81621890       0.10257820
    56  C          0.96045820       0.31621890       0.39742180
    57  H          0.92564400       0.23498500       0.93655900
    58  H          0.07435600       0.73498500       0.56344100
    59  H          0.07435600       0.76501500       0.06344100
    60  H          0.92564400       0.26501500       0.43655900
    61  C          0.12225170       0.06665110       0.93532160
    62  C          0.87774830       0.56665110       0.56467840
    63  C          0.87774830       0.93334890       0.06467840
    64  C          0.12225170       0.43334890       0.43532160
    65  C          0.22770170       0.02750110       0.02712170
    66  C          0.77229830       0.52750110       0.47287830
    67  C          0.77229830       0.97249890       0.97287830
    68  C          0.22770170       0.47249890       0.52712170
    69  H          0.25057800       0.04933600       0.11980600
    70  H          0.74942200       0.54933600       0.38019400
    71  H          0.74942200       0.95066400       0.88019400
    72  H          0.25057800       0.45066400       0.61980600
    73  C          0.29740170       0.95746110       0.98186160
    74  C          0.70259830       0.45746110       0.51813840
    75  C          0.70259830       0.04253890       0.01813840
    76  C          0.29740170       0.54253890       0.48186160
    77  C          0.26634170       0.92449100       0.84464170
    78  C          0.73365830       0.42449100       0.65535830
    79  C          0.73365830       0.07550900       0.15535830
    80  C          0.26634170       0.57550900       0.34464170
    81  C          0.15941170       0.96136110       0.75519170
    82  C          0.84058830       0.46136110       0.74480830
    83  C          0.84058830       0.03863890       0.24480830
    84  C          0.15941170       0.53863890       0.25519170
    85  H          0.13553700       0.93858200       0.66320800
    86  H          0.86446300       0.43858200       0.83679200
    87  H          0.86446300       0.06141800       0.33679200
    88  H          0.13553700       0.56141800       0.16320800
    89  C          0.08744170       0.03175110       0.80084160
    90  C          0.91255830       0.53175110       0.69915840
    91  C          0.91255830       0.96824890       0.19915840
    92  C          0.08744170       0.46824890       0.30084160
    93  O          0.72710160       0.68162900       0.75048140
    94  O          0.27289840       0.18162900       0.74951860
    95  O          0.27289840       0.31837100       0.24951860
    96  O          0.72710160       0.81837100       0.25048140
    97  O          0.83967140       0.81085900       0.75882130
    98  O          0.16032860       0.31085900       0.74117870
    99  O          0.16032860       0.18914100       0.24117870
   100  O          0.83967140       0.68914100       0.25882130
   101  N          0.72007150       0.86466100       0.51146150
   102  N          0.27992850       0.36466100      -0.01146150
   103  N          0.27992850       0.13533900       0.48853850
   104  N          0.72007150       0.63533900       0.01146150
   105  H          0.75301800       0.84901200       0.43331200
   106  H          0.24698200       0.34901200       0.06668800
   107  H          0.24698200       0.15098800       0.56668800
   108  H          0.75301800       0.65098800       0.93331200
   109  H          0.78421500       0.88321300       0.58061300
   110  H          0.21578500       0.38321300       0.91938700
   111  H          0.21578500       0.11678700       0.41938700
   112  H          0.78421500       0.61678700       0.08061300
   113  C          0.75482000       0.75562130       0.70476180
   114  C          0.24518000       0.25562130       0.79523820
   115  C          0.24518000       0.24437870       0.29523820
   116  C          0.75482000       0.74437870       0.20476180
   117  C          0.67259190       0.78046120       0.56551180
   118  C          0.32740810       0.28046120       0.93448820
   119  C          0.32740810       0.21953880       0.43448820
   120  C          0.67259190       0.71953880       0.06551180
   121  H          0.67991000       0.73290100       0.49658200
   122  H          0.32009000       0.23290100       0.00341800
   123  H          0.32009000       0.26709900       0.50341800
   124  H          0.67991000       0.76709900      -0.00341800
   125  H          0.57623300       0.78621000       0.57740600
   126  H          0.42376700       0.28621000       0.92259400
   127  H          0.42376700       0.21379000       0.42259400
   128  H          0.57623300       0.71379000       0.07740600
   129  C          0.61369190       0.93206130       0.48462000
   130  C          0.38630810       0.43206130       0.01538000
   131  C          0.38630810       0.06793870       0.51538000
   132  C          0.61369190       0.56793870       0.98462000
   133  H          0.53978300       0.90952500       0.41597800
   134  H          0.46021700       0.40952500       0.08402200
   135  H          0.46021700       0.09047500       0.58402200
   136  H          0.53978300       0.59047500       0.91597800
   137  H          0.65114700       0.98556600       0.44786600
   138  H          0.34885300       0.48556600       0.05213400
   139  H          0.34885300       0.01443400       0.55213400
   140  H          0.65114700       0.51443400       0.94786600
   141  H          0.57919600       0.94604300       0.57217100
   142  H          0.42080400       0.44604300       0.92782900
   143  H          0.42080400       0.05395700       0.42782900
   144  H          0.57919600       0.55395700       0.07217100
