data_DUPCID
_symmetry_space_group_name_H-M    'P1'
_symmetry_Int_Tables_number       1
loop_
_symmetry_equiv_pos_site_id
_symmetry_equiv_pos_as_xyz
1 x,y,z
_cell_length_a                   10.54614
_cell_length_b                   11.19604
_cell_length_c                   18.02066
_cell_angle_alpha                72.6092
_cell_angle_beta                 77.3032
_cell_angle_gamma                62.5392
loop_
_atom_site_label
_atom_site_type_symbol
_atom_site_fract_x
_atom_site_fract_y
_atom_site_fract_z
     1  P          0.80727200       0.59972800       0.13406400
     2  P          0.19272800       0.40027200       0.86593600
     3  O          0.75936000       0.90913000       0.44272160
     4  O          0.24064000       0.09087000       0.55727840
     5  O          0.88017000       0.69953000       0.50456150
     6  O          0.11983000       0.30047000       0.49543850
     7  O          0.92788000       0.59262000       0.17686130
     8  O          0.07212000       0.40738000       0.82313870
     9  O          0.69638000       0.56642000       0.18640120
    10  O          0.30362000       0.43358000       0.81359880
    11  O          0.75438000       0.74452000       0.07685140
    12  O          0.24562000       0.25548000       0.92314860
    13  O          0.90258000       0.50482000       0.07694120
    14  O          0.09742000       0.49518000       0.92305880
    15  N          0.83217000       0.78533000       0.44535170
    16  N          0.16783000       0.21467000       0.55464830
    17  C          0.85886000       0.73623000       0.37402180
    18  C          0.14114000       0.26377000       0.62597820
    19  C          0.95366000       0.60034000       0.37302000
    20  C          0.04634000       0.39966000       0.62698000
    21  H          0.00369300       0.54022700       0.41719100
    22  H         -0.00369300       0.45977300       0.58280900
    23  C          0.97396000       0.55384000       0.30692000
    24  C          0.02604000       0.44616000       0.69308000
    25  H          0.03786100       0.46076300       0.30512700
    26  H          0.96213900       0.53923700       0.69487300
    27  C          0.90067000       0.64363000       0.24298180
    28  C          0.09933000       0.35637000       0.75701820
    29  C          0.80776000       0.77913000       0.24421190
    30  C          0.19224000       0.22087000       0.75578810
    31  H          0.75981100       0.83947600       0.19942100
    32  H          0.24018900       0.16052400       0.80057900
    33  C          0.78446000       0.82723000       0.31042000
    34  C          0.21554000       0.17277000       0.68958000
    35  H          0.71936600       0.91978000       0.31238700
    36  H          0.28063400       0.08022000       0.68761300
    37  C          0.60417000       0.83383000       0.07242000
    38  C          0.39583000       0.16617000       0.92758000
    39  H          0.56842300       0.81472800       0.03346000
    40  H          0.43157700       0.18527200       0.96654000
    41  H          0.59022400       0.93038500       0.05718300
    42  H          0.40977600       0.06961500       0.94281700
    43  H          0.55148600       0.81712300       0.12352600
    44  H          0.44851400       0.18287700       0.87647400
    45  C          0.97726000       0.35753000       0.10662000
    46  C          0.02274000       0.64247000       0.89338000
    47  H          0.03376300       0.31367300       0.06322400
    48  H          0.96623700       0.68632700       0.93677600
    49  H          0.90731200       0.31945700       0.13201800
    50  H          0.09268800       0.68054300       0.86798200
    51  H          0.04138100       0.33940200       0.14452100
    52  H          0.95861900       0.66059800       0.85547900
    53  O          0.35593000       0.41793000       0.40702150
    54  O          0.64407000       0.58207000       0.59297850
    55  O          0.00063000       0.94343000       0.63088150
    56  O         -0.00063000       0.05657000       0.36911850
    57  O          0.41543000       0.87212000       0.92129150
    58  O          0.58457000       0.12788000       0.07870850
    59  O          0.95173000       0.16652000       0.96600160
    60  O          0.04827000       0.83348000       0.03399840
    61  O          0.67264000       0.90487000       0.75099160
    62  O          0.32736000       0.09513000       0.24900840
    63  C          0.36393000       0.41984000       0.47172000
    64  C          0.63607000       0.58016000       0.52828000
    65  C          0.44613000       0.30454000       0.53432000
    66  C          0.55387000       0.69546000       0.46568000
    67  C          0.53134000       0.16504000       0.53412000
    68  C          0.46866000       0.83496000       0.46588000
    69  H          0.54201800       0.13214300       0.48913500
    70  H          0.45798200       0.86785700       0.51086500
    71  C          0.59994000       0.07504000       0.59902000
    72  C          0.40006000       0.92496000       0.40098000
    73  H          0.65653800       0.97983500       0.59941300
    74  H          0.34346200       0.02016500       0.40058700
    75  C          0.58523000       0.12493000       0.66420190
    76  C          0.41477000       0.87507000       0.33579810
    77  C          0.49953000       0.26543000       0.66528180
    78  C          0.50047000       0.73457000       0.33471820
    79  H          0.48942500       0.29848900       0.70999500
    80  H          0.51057500       0.70151100       0.29000500
    81  C          0.43013000       0.35433000       0.59959180
    82  C          0.56987000       0.64567000       0.40040820
    83  C          0.33243000       0.50503000       0.58298180
    84  C          0.66757000       0.49497000       0.41701820
    85  C          0.28083000       0.60153000       0.62869170
    86  C          0.71917000       0.39847000       0.37130830
    87  H          0.30832300       0.57568800       0.67995000
    88  H          0.69167700       0.42431200       0.32005000
    89  C          0.18583000       0.73943000       0.59682170
    90  C          0.81417000       0.26057000       0.40317830
    91  C          0.14603000       0.77354000       0.52198180
    92  C          0.85397000       0.22646000       0.47801820
    93  H          0.08075300       0.86540400       0.50120400
    94  H          0.91924700       0.13459600       0.49879600
    95  C          0.19923000       0.67674000       0.47738190
    96  C          0.80077000       0.32326000       0.52261810
    97  H          0.17214600       0.70161800       0.42605800
    98  H          0.82785400       0.29838200       0.57394200
    99  C          0.29133000       0.54444000       0.50807180
   100  C          0.70867000       0.45556000       0.49192820
   101  C          0.12063000       0.84973000       0.64240180
   102  C          0.87937000       0.15027000       0.35759820
   103  C          0.20273000       0.84523000       0.70127170
   104  C          0.79727000       0.15477000       0.29872830
   105  C          0.12923000       0.89943000       0.76599180
   106  C          0.87077000       0.10057000       0.23400820
   107  H          0.02731300       0.94409900       0.77039800
   108  H          0.97268700       0.05590100       0.22960200
   109  C          0.20263000       0.88913000       0.82440170
   110  C          0.79737000       0.11087000       0.17559830
   111  H          0.15141600       0.92588800       0.86876900
   112  H          0.84858400       0.07411200       0.13123100
   113  C          0.35243000       0.82423000       0.81737170
   114  C          0.64757000       0.17577000       0.18262830
   115  C          0.42633000       0.77753000       0.75000180
   116  C          0.57367000       0.22247000       0.24999820
   117  H          0.52820000       0.73922100       0.74347400
   118  H          0.47180000       0.26077900       0.25652600
   119  C          0.35243000       0.78673000       0.69282180
   120  C          0.64757000       0.21327000       0.30717820
   121  H          0.40351900       0.75307100       0.64749800
   122  H          0.59648100       0.24692900       0.35250200
   123  C          0.43423000       0.79013000       0.88404180
   124  C          0.56577000       0.20987000       0.11595820
   125  C          0.53983000       0.64143000       0.90377170
   126  C          0.46017000       0.35857000       0.09622830
   127  C          0.67223000       0.60153000       0.92834170
   128  C          0.32777000       0.39847000       0.07165830
   129  H          0.69470100       0.66818900       0.93791100
   130  H          0.30529900       0.33181100       0.06208900
   131  C          0.77173000       0.46443000       0.93895170
   132  C          0.22827000       0.53557000       0.06104830
   133  H          0.86233200       0.43733500       0.95578800
   134  H          0.13766800       0.56266500       0.04421200
   135  C          0.73963000       0.36693000       0.92512170
   136  C          0.26037000       0.63307000       0.07487830
   137  C          0.60213000       0.40583000       0.90615180
   138  C          0.39787000       0.59417000       0.09384820
   139  H          0.57645600       0.33777900       0.90110200
   140  H          0.42354400       0.66222100       0.09889800
   141  C          0.50393000       0.54183000       0.89478190
   142  C          0.49607000       0.45817000       0.10521810
   143  H          0.41140100       0.56796700       0.88075900
   144  H          0.58859900       0.43203300       0.11924100
   145  C          0.85093000       0.22053000       0.92709180
   146  C          0.14907000       0.77947000       0.07290820
   147  C          0.82443000       0.15293000       0.87594180
   148  C          0.17557000       0.84707000       0.12405820
   149  C          0.80133000       0.03363000       0.90598170
   150  C          0.19867000       0.96637000       0.09401830
   151  H          0.81982500       0.98256500       0.95806300
   152  H          0.18017500       0.01743500       0.04193700
   153  C          0.75123000      -0.00913000       0.85879180
   154  C          0.24877000       0.00913000       0.14120820
   155  H          0.73385100       0.91051200       0.87886600
   156  H          0.26614900       0.08948800       0.12113400
   157  C          0.72563000       0.06473000       0.78169180
   158  C          0.27437000       0.93527000       0.21830820
   159  C          0.76063000       0.17533000       0.75095180
   160  C          0.23937000       0.82467000       0.24904820
   161  H          0.75163600       0.22052600       0.69733100
   162  H          0.24836400       0.77947400       0.30266900
   163  C          0.80833000       0.22033000       0.79718180
   164  C          0.19167000       0.77967000       0.20281820
   165  H          0.83064000       0.29768900       0.77577200
   166  H          0.16936000       0.70231100       0.22422800
   167  C          0.66184000       0.02194000       0.73362000
   168  C          0.33816000       0.97806000       0.26638000
