data_DUQXOF
_symmetry_space_group_name_H-M    'P1'
_symmetry_Int_Tables_number       1
loop_
_symmetry_equiv_pos_site_id
_symmetry_equiv_pos_as_xyz
1 x,y,z
_cell_length_a                   9.51214
_cell_length_b                   5.50843
_cell_length_c                   21.29938
_cell_angle_alpha                90.0
_cell_angle_beta                 94.1154
_cell_angle_gamma                90.0
loop_
_atom_site_label
_atom_site_type_symbol
_atom_site_fract_x
_atom_site_fract_y
_atom_site_fract_z
     1  C          0.66426170       0.58913000       0.11724800
     2  C          0.83573830       0.08913000       0.38275200
     3  C          0.33573830       0.41087000       0.88275200
     4  C          0.16426170       0.91087000       0.61724800
     5  C          0.77556170       0.40463000       0.12811800
     6  C          0.72443830       0.90463000       0.37188200
     7  C          0.22443830       0.59537000       0.87188200
     8  C          0.27556170       0.09537000       0.62811800
     9  C          0.86487180       0.41423000       0.18380800
    10  C          0.63512820       0.91423000       0.31619200
    11  C          0.13512820       0.58577000       0.81619200
    12  C          0.36487180       0.08577000       0.68380800
    13  C          0.96975180       0.23893000       0.19308800
    14  C          0.53024820       0.73893000       0.30691200
    15  C          0.03024820       0.76107000       0.80691200
    16  C          0.46975180       0.26107000       0.69308800
    17  H          0.03074200       0.24478600       0.22917900
    18  H          0.46925800       0.74478600       0.27082100
    19  H          0.96925800       0.75521400       0.77082100
    20  H          0.53074200       0.25521400       0.72917900
    21  C         -0.01524820       0.05693000       0.14969800
    22  C          0.51524820       0.55693000       0.35030200
    23  C          0.01524820       0.94307000       0.85030200
    24  C          0.48475180       0.44307000       0.64969800
    25  H          0.05466400       0.94018000       0.15693500
    26  H          0.44533600       0.44018000       0.34306500
    27  H          0.94533600       0.05982000       0.84306500
    28  H          0.55466400       0.55982000       0.65693500
    29  C          0.89518180       0.04743000       0.09487800
    30  C          0.60481820       0.54743000       0.40512200
    31  C          0.10481820       0.95257000       0.90512200
    32  C          0.39518180       0.45257000       0.59487800
    33  C          0.79246170       0.22183000       0.08399800
    34  C          0.70753830       0.72183000       0.41600200
    35  C          0.20753830       0.77817000       0.91600200
    36  C          0.29246170       0.27817000       0.58399800
    37  H          0.73412900       0.21759200       0.04704500
    38  H          0.76587100       0.71759200       0.45295500
    39  H          0.26587100       0.78240800       0.95295500
    40  H          0.23412900       0.28240800       0.54704500
    41  O          0.63995130       0.74332000       0.15684600
    42  O          0.86004870       0.24332000       0.34315400
    43  O          0.36004870       0.25668000       0.84315400
    44  O          0.13995130       0.75668000       0.65684600
    45  O          0.59114130       0.57312000       0.06242600
    46  O          0.90885870       0.07312000       0.43757400
    47  O          0.40885870       0.42688000       0.93757400
    48  O          0.09114130       0.92688000       0.56242600
    49  H          0.53360200       0.68397800       0.05907300
    50  H          0.96639800       0.18397800       0.44092700
    51  H          0.46639800       0.31602200       0.94092700
    52  H          0.03360200       0.81602200       0.55907300
    53  O          0.85467140       0.58672000       0.22894600
    54  O          0.64532860       0.08672000       0.27105400
    55  O          0.14532860       0.41328000       0.77105400
    56  O          0.35467140       0.91328000       0.72894600
    57  H          0.78601900       0.67304900       0.21980200
    58  H          0.71398100       0.17304900       0.28019800
    59  H          0.21398100       0.32695100       0.78019800
    60  H          0.28601900       0.82695100       0.71980200
    61  O          0.90299140       0.86628000       0.05102600
    62  O          0.59700860       0.36628000       0.44897400
    63  O          0.09700860       0.13372000       0.94897400
    64  O          0.40299140       0.63372000       0.55102600
    65  H          0.97375300       0.78434300       0.05954400
    66  H          0.52624700       0.28434300       0.44045600
    67  H          0.02624700       0.21565700       0.94045600
    68  H          0.47375300       0.71565700       0.55954400
    69  C          0.36699180       0.07363000       0.08241800
    70  C          0.13300820       0.57363000       0.41758200
    71  C          0.63300820       0.92637000       0.91758200
    72  C          0.86699180       0.42637000       0.58241800
    73  C          0.39818180       0.30313000       0.17807800
    74  C          0.10181820       0.80313000       0.32192200
    75  C          0.60181820       0.69687000       0.82192200
    76  C          0.89818180       0.19687000       0.67807800
    77  H          0.44490600       0.32294300       0.21760700
    78  H          0.05509400       0.82294300       0.28239300
    79  H          0.55509400       0.67705700       0.78239300
    80  H          0.94490600       0.17705700       0.71760700
    81  C          0.29634180       0.45753000       0.15831800
    82  C          0.20365820       0.95753000       0.34168200
    83  C          0.70365820       0.54247000       0.84168200
    84  C          0.79634180       0.04247000       0.65831800
    85  C          0.22017170       0.43353000       0.09719800
    86  C          0.27982830       0.93353000       0.40280200
    87  C          0.77982830       0.56647000       0.90280200
    88  C          0.72017170       0.06647000       0.59719800
    89  F          0.25872120       0.64352000       0.19448500
    90  F          0.24127880       0.14352000       0.30551500
    91  F          0.74127880       0.35648000       0.80551500
    92  F          0.75872120       0.85648000       0.69448500
    93  N          0.26231150       0.23513000       0.06407700
    94  N          0.23768850       0.73513000       0.43592300
    95  N          0.73768850       0.76487000       0.93592300
    96  N          0.76231150       0.26487000       0.56407700
    97  H          0.21826100       0.20973900       0.02798700
    98  H          0.28173900       0.70973900       0.47201300
    99  H          0.78173900       0.79026100       0.97201300
   100  H          0.71826100       0.29026100       0.52798700
   101  N          0.43394150       0.11533000       0.14021700
   102  N          0.06605850       0.61533000       0.35978300
   103  N          0.56605850       0.88467000       0.85978300
   104  N          0.93394150       0.38467000       0.64021700
   105  H          0.50129200       0.01992500       0.15339000
   106  H         -0.00129200       0.51992500       0.34661000
   107  H          0.49870800      -0.01992500       0.84661000
   108  H          0.00129200       0.48007500       0.65339000
   109  O          0.39639140       0.90317000       0.04862600
   110  O          0.10360860       0.40317000       0.45137400
   111  O          0.60360860       0.09683000       0.95137400
   112  O          0.89639140       0.59683000       0.54862600
   113  O          0.12724140       0.57023000       0.07611600
   114  O          0.37275860       0.07023000       0.42388400
   115  O          0.87275860       0.42977000       0.92388400
   116  O          0.62724140       0.92977000       0.57611600
