data_DURZAR
_symmetry_space_group_name_H-M    'P1'
_symmetry_Int_Tables_number       1
loop_
_symmetry_equiv_pos_site_id
_symmetry_equiv_pos_as_xyz
1 x,y,z
_cell_length_a                   9.2801
_cell_length_b                   11.8692
_cell_length_c                   7.2931
_cell_angle_alpha                90.0
_cell_angle_beta                 98.682
_cell_angle_gamma                90.0
loop_
_atom_site_label
_atom_site_type_symbol
_atom_site_fract_x
_atom_site_fract_y
_atom_site_fract_z
     1  C          0.90519000       0.90789000       0.92788000
     2  C          0.59481000       0.40789000       0.07212000
     3  C          0.09481000       0.09211000       0.07212000
     4  C          0.40519000       0.59211000       0.92788000
     5  H          0.84180000       0.84680000       0.88270000
     6  H          0.65820000       0.34680000       0.11730000
     7  H          0.15820000       0.15320000       0.11730000
     8  H          0.34180000       0.65320000       0.88270000
     9  C          0.04711000       0.89189000       0.01582000
    10  C          0.45289000       0.39189000      -0.01582000
    11  C          0.95289000       0.10811000      -0.01582000
    12  C          0.54711000       0.60811000       0.01582000
    13  C          0.86159000       0.01991000       0.91448000
    14  C          0.63841000       0.51991000       0.08552000
    15  C          0.13841000       0.98009000       0.08552000
    16  C          0.36159000       0.48009000       0.91448000
    17  C          0.13001000       0.78549000       0.05312000
    18  C          0.36999000       0.28549000       0.94688000
    19  C          0.86999000       0.21451000       0.94688000
    20  C          0.63001000       0.71451000       0.05312000
    21  O          0.09521000       0.69021200       0.01882000
    22  O          0.40479000       0.19021200      -0.01882000
    23  O          0.90479000       0.30978800      -0.01882000
    24  O          0.59521000       0.80978800       0.01882000
    25  C          0.71939000       0.06941000       0.83098000
    26  C          0.78061000       0.56941000       0.16902000
    27  C          0.28061000       0.93059000       0.16902000
    28  C          0.21939000       0.43059000       0.83098000
    29  O          0.61099000       0.02721000       0.75139000
    30  O          0.88901000       0.52721000       0.24861000
    31  O          0.38901000       0.97279000       0.24861000
    32  O          0.11099000       0.47279000       0.75139000
    33  O          0.26941000       0.81317200       0.14261000
    34  O          0.23059000       0.31317200       0.85739000
    35  O          0.73059000       0.18682800       0.85739000
    36  O          0.76941000       0.68682800       0.14261000
    37  C          0.05911000       0.80369000       0.48902000
    38  C          0.44089000       0.30369000       0.51098000
    39  C          0.94089000       0.19631000       0.51098000
    40  C          0.55911000       0.69631000       0.48902000
    41  H         -0.00120000       0.73980000       0.43130000
    42  H          0.50120000       0.23980000       0.56870000
    43  H          0.00120000       0.26020000       0.56870000
    44  H          0.49880000       0.76020000       0.43130000
    45  C          0.20331000       0.78369000       0.57992000
    46  C          0.29669000       0.28369000       0.42008000
    47  C          0.79669000       0.21631000       0.42008000
    48  C          0.70331000       0.71631000       0.57992000
    49  H          0.24220000       0.70580000       0.58230000
    50  H          0.25780000       0.20580000       0.41770000
    51  H          0.75780000       0.29420000       0.41770000
    52  H          0.74220000       0.79420000       0.58230000
    53  C          0.29241000       0.86959000       0.66192000
    54  C          0.20759000       0.36959000       0.33808000
    55  C          0.70759000       0.13041000       0.33808000
    56  C          0.79241000       0.63041000       0.66192000
    57  H          0.39120000       0.85180000       0.71620000
    58  H          0.10880000       0.35180000       0.28380000
    59  H          0.60880000       0.14820000       0.28380000
    60  H          0.89120000       0.64820000       0.71620000
    61  C          0.24501000       0.98339000       0.65972000
    62  C          0.25499000       0.48339000       0.34028000
    63  C          0.75499000       0.01661000       0.34028000
    64  C          0.74501000       0.51661000       0.65972000
    65  H          0.31120000       0.04220000       0.71930000
    66  H          0.18880000       0.54220000       0.28070000
    67  H          0.68880000       0.95780000       0.28070000
    68  H          0.81120000       0.45780000       0.71930000
    69  C          0.10591000       0.00201000       0.57152000
    70  C          0.39409000       0.50201000       0.42848000
    71  C          0.89409000      -0.00201000       0.42848000
    72  C          0.60591000       0.49799000       0.57152000
    73  C          0.01451000       0.91359000       0.48802000
    74  C          0.48549000       0.41359000       0.51198000
    75  C         -0.01451000       0.08641000       0.51198000
    76  C          0.51451000       0.58641000       0.48802000
