data_DUSKUY
_symmetry_space_group_name_H-M    'P1'
_symmetry_Int_Tables_number       1
loop_
_symmetry_equiv_pos_site_id
_symmetry_equiv_pos_as_xyz
1 x,y,z
_cell_length_a                   21.37012
_cell_length_b                   3.9902
_cell_length_c                   28.93915
_cell_angle_alpha                90.0
_cell_angle_beta                 90.0
_cell_angle_gamma                90.0
loop_
_atom_site_label
_atom_site_type_symbol
_atom_site_fract_x
_atom_site_fract_y
_atom_site_fract_z
     1  Br         0.00906600       0.78882000       0.30916300
     2  Br         0.99093400       0.21118000       0.80916300
     3  Br         0.50906600       0.71118000       0.30916300
     4  Br         0.49093400       0.28882000       0.80916300
     5  N          0.97877000       0.34820000       0.43573000
     6  N          0.02123000       0.65180000       0.93573000
     7  N          0.47877000       0.15180000       0.43573000
     8  N          0.52123000       0.84820000       0.93573000
     9  N          0.03614000       0.25941900       0.50153000
    10  N          0.96386000       0.74058100       0.00153000
    11  N          0.53614000       0.24058100       0.50153000
    12  N          0.46386000       0.75941900       0.00153000
    13  H          0.00400000       0.15840000       0.51270000
    14  H         -0.00400000       0.84160000       0.01270000
    15  H          0.50400000       0.34160000       0.51270000
    16  H          0.49600000       0.65840000       0.01270000
    17  H          0.06970000       0.27760000       0.51770000
    18  H          0.93030000       0.72240000       0.01770000
    19  H          0.56970000       0.22240000       0.51770000
    20  H          0.43030000       0.77760000       0.01770000
    21  C          0.97265000       0.46920000       0.39343000
    22  C          0.02735000       0.53080000       0.89343000
    23  C          0.47265000       0.03080000       0.39343000
    24  C          0.52735000      -0.03080000       0.89343000
    25  H          0.93430000       0.44600000       0.37870000
    26  H          0.06570000       0.55400000       0.87870000
    27  H          0.43430000       0.05400000       0.37870000
    28  H          0.56570000       0.94600000       0.87870000
    29  C          0.02125000       0.62820000       0.36993000
    30  C          0.97875000       0.37180000       0.86993000
    31  C          0.52125000       0.87180000       0.36993000
    32  C          0.47875000       0.12820000       0.86993000
    33  C          0.07945000       0.67220000       0.39283000
    34  C          0.92055000       0.32780000       0.89283000
    35  C          0.57945000       0.82780000       0.39283000
    36  C          0.42055000       0.17220000       0.89283000
    37  H          0.11320000       0.77400000       0.37820000
    38  H          0.88680000       0.22600000       0.87820000
    39  H          0.61320000       0.72600000       0.37820000
    40  H          0.38680000       0.27400000       0.87820000
    41  C          0.08364000       0.55620000       0.43693000
    42  C          0.91636000       0.44380000       0.93693000
    43  C          0.58364000       0.94380000       0.43693000
    44  C          0.41636000       0.05620000       0.93693000
    45  H          0.12060000       0.58900000       0.45320000
    46  H          0.87940000       0.41100000       0.95320000
    47  H          0.62060000       0.91100000       0.45320000
    48  H          0.37940000       0.08900000       0.95320000
    49  C          0.03384000       0.38920000       0.45853000
    50  C          0.96616000       0.61080000       0.95853000
    51  C          0.53384000       0.11080000       0.45853000
    52  C          0.46616000       0.88920000       0.95853000
    53  Br         0.25717600       0.35152000       0.37657400
    54  Br         0.74282400       0.64848000       0.87657400
    55  Br         0.75717600       0.14848000       0.37657400
    56  Br         0.24282400       0.85152000       0.87657400
    57  N          0.28614000       0.93280000       0.24913000
    58  N          0.71386000       0.06720000       0.74913000
    59  N          0.78614000       0.56720000       0.24913000
    60  N          0.21386000       0.43280000       0.74913000
    61  N          0.22634000       0.82180000       0.18573000
    62  N          0.77366000       0.17820000       0.68573000
    63  N          0.72634000       0.67820000       0.18573000
    64  N          0.27366000       0.32180000       0.68573000
    65  H          0.25910000       0.73960000       0.17280000
    66  H          0.74090000       0.26040000       0.67280000
    67  H          0.75910000       0.76040000       0.17280000
    68  H          0.24090000       0.23960000       0.67280000
    69  H          0.19120000       0.82400000       0.17110000
    70  H          0.80880000       0.17600000       0.67110000
    71  H          0.69120000       0.67600000       0.17110000
    72  H          0.30880000       0.32400000       0.67110000
    73  C          0.29255000       0.04920000       0.29303000
    74  C          0.70745000       0.95080000       0.79303000
    75  C          0.79255000       0.45080000       0.29303000
    76  C          0.20745000       0.54920000       0.79303000
    77  H          0.33120000       0.03460000       0.30750000
    78  H          0.66880000      -0.03460000       0.80750000
    79  H          0.83120000       0.46540000       0.30750000
    80  H          0.16880000       0.53460000       0.80750000
    81  C          0.24425000       0.18320000       0.31554000
    82  C          0.75575000       0.81680000       0.81554000
    83  C          0.74425000       0.31680000       0.31554000
    84  C          0.25575000       0.68320000       0.81554000
    85  C          0.18515000       0.19620000       0.29643000
    86  C          0.81485000       0.80380000       0.79643000
    87  C          0.68515000       0.30380000       0.29643000
    88  C          0.31485000       0.69620000       0.79643000
    89  H          0.15140000       0.28320000       0.31290000
    90  H          0.84860000       0.71680000       0.81290000
    91  H          0.65140000       0.21680000       0.31290000
    92  H          0.34860000       0.78320000       0.81290000
    93  C          0.17734000       0.07620000       0.25133000
    94  C          0.82266000       0.92380000       0.75133000
    95  C          0.67734000       0.42380000       0.25133000
    96  C          0.32266000       0.57620000       0.75133000
    97  H          0.13830000       0.08220000       0.23700000
    98  H          0.86170000       0.91780000       0.73700000
    99  H          0.63830000       0.41780000       0.23700000
   100  H          0.36170000       0.58220000       0.73700000
   101  C          0.22974000       0.94380000       0.22803000
   102  C          0.77026000       0.05620000       0.72803000
   103  C          0.72974000       0.55620000       0.22803000
   104  C          0.27026000       0.44380000       0.72803000
   105  O          0.65153000       0.30771500       0.55792000
   106  O          0.34847000       0.69228500       0.05792000
   107  O          0.15153000       0.19228500       0.55792000
   108  O          0.84847000       0.80771500       0.05792000
   109  H          0.64710000       0.31090000       0.58600000
   110  H          0.35290000       0.68910000       0.08600000
   111  H          0.14710000       0.18910000       0.58600000
   112  H          0.85290000       0.81090000       0.08600000
   113  O          0.88173000       0.00481600       0.46262000
   114  O          0.11827000      -0.00481600       0.96262000
   115  O          0.38173000       0.49518400       0.46262000
   116  O          0.61827000       0.50481600       0.96262000
   117  H          0.91440000       0.10650000       0.45790000
   118  H          0.08560000       0.89350000       0.95790000
   119  H          0.41440000       0.39350000       0.45790000
   120  H          0.58560000       0.60650000       0.95790000
   121  O          0.90663000       0.12041500       0.53622000
   122  O          0.09337000       0.87958500       0.03622000
   123  O          0.40663000       0.37958500       0.53622000
   124  O          0.59337000       0.62041500       0.03622000
   125  C          0.77544000       0.66220000       0.48703000
   126  C          0.22456000       0.33780000       0.98703000
   127  C          0.27544000       0.83780000       0.48703000
   128  C          0.72456000       0.16220000       0.98703000
   129  H          0.78680000       0.67120000       0.45610000
   130  H          0.21320000       0.32880000       0.95610000
   131  H          0.28680000       0.82880000       0.45610000
   132  H          0.71320000       0.17120000       0.95610000
   133  C          0.72024000       0.49820000       0.50003000
   134  C          0.27976000       0.50180000       0.00003000
   135  C          0.22024000       0.00180000       0.50003000
   136  C          0.77976000      -0.00180000       0.00003000
   137  H          0.69470000       0.39960000       0.47770000
   138  H          0.30530000       0.60040000       0.97770000
   139  H          0.19470000       0.10040000       0.47770000
   140  H          0.80530000       0.89960000       0.97770000
   141  C          0.70434000       0.48320000       0.54613000
   142  C          0.29566000       0.51680000       0.04613000
   143  C          0.20434000       0.01680000       0.54613000
   144  C          0.79566000      -0.01680000       0.04613000
   145  C          0.74264000       0.63420000       0.57853000
   146  C          0.25736000       0.36580000       0.07853000
   147  C          0.24264000       0.86580000       0.57853000
   148  C          0.75736000       0.13420000       0.07853000
   149  H          0.73110000       0.62830000       0.60940000
   150  H          0.26890000       0.37170000       0.10940000
   151  H          0.23110000       0.87170000       0.60940000
   152  H          0.76890000       0.12830000       0.10940000
   153  C          0.79574000       0.78920000       0.56643000
   154  C          0.20426000       0.21080000       0.06643000
   155  C          0.29574000       0.71080000       0.56643000
   156  C          0.70426000       0.28920000       0.06643000
   157  H          0.82120000       0.88110000       0.58920000
   158  H          0.17880000       0.11890000       0.08920000
   159  H          0.32120000       0.61890000       0.58920000
   160  H          0.67880000       0.38110000       0.08920000
   161  C          0.81334000       0.81320000       0.52023000
   162  C          0.18666000       0.18680000       0.02023000
   163  C          0.31334000       0.68680000       0.52023000
   164  C          0.68666000       0.31320000       0.02023000
   165  C          0.87114000      -0.00980000       0.50703000
   166  C          0.12886000       0.00980000       0.00703000
   167  C          0.37114000       0.50980000       0.50703000
   168  C          0.62886000       0.49020000       0.00703000
   169  O          0.60683000       0.80068500       0.12782000
   170  O          0.39317000       0.19931500       0.62782000
   171  O          0.10683000       0.69931500       0.12782000
   172  O          0.89317000       0.30068500       0.62782000
   173  H          0.60390000       0.74420000       0.10060000
   174  H          0.39610000       0.25580000       0.60060000
   175  H          0.10390000       0.75580000       0.10060000
   176  H          0.89610000       0.24420000       0.60060000
   177  O          0.38593000       0.57861500       0.22362000
   178  O          0.61407000       0.42138500       0.72362000
   179  O          0.88593000       0.92138500       0.22362000
   180  O          0.11407000       0.07861500       0.72362000
   181  H          0.35410000       0.68880000       0.22820000
   182  H          0.64590000       0.31120000       0.72820000
   183  H          0.85410000       0.81120000       0.22820000
   184  H          0.14590000       0.18880000       0.72820000
   185  O          0.35583000       0.65841600       0.15052000
   186  O          0.64417000       0.34158400       0.65052000
   187  O          0.85583000       0.84158400       0.15052000
   188  O          0.14417000       0.15841600       0.65052000
   189  C          0.46194000       0.28620000       0.11943000
   190  C          0.53806000       0.71380000       0.61943000
   191  C          0.96194000       0.21380000       0.11943000
   192  C          0.03806000       0.78620000       0.61943000
   193  H          0.43500000       0.36800000       0.09680000
   194  H          0.56500000       0.63200000       0.59680000
   195  H          0.93500000       0.13200000       0.09680000
   196  H          0.06500000       0.86800000       0.59680000
   197  C          0.51504000       0.10520000       0.10614000
   198  C          0.48496000       0.89480000       0.60614000
   199  C          0.01504000       0.39480000       0.10614000
   200  C          0.98496000       0.60520000       0.60614000
   201  H          0.52340000       0.06530000       0.07500000
   202  H          0.47660000       0.93470000       0.57500000
   203  H          0.02340000       0.43470000       0.07500000
   204  H          0.97660000       0.56530000       0.57500000
   205  C          0.55474000      -0.01311900       0.14013000
   206  C          0.44526000       0.01311900       0.64013000
   207  C          0.05474000       0.51311900       0.14013000
   208  C          0.94526000       0.48688100       0.64013000
   209  C          0.54174000       0.03120000       0.18643000
   210  C          0.45826000      -0.03120000       0.68643000
   211  C          0.04174000       0.46880000       0.18643000
   212  C          0.95826000       0.53120000       0.68643000
   213  H          0.56800000       0.93930000       0.20860000
   214  H          0.43200000       0.06070000       0.70860000
   215  H          0.06800000       0.56070000       0.20860000
   216  H          0.93200000       0.43930000       0.70860000
   217  C          0.49064000       0.21020000       0.19953000
   218  C          0.50936000       0.78980000       0.69953000
   219  C          0.99064000       0.28980000       0.19953000
   220  C          0.00936000       0.71020000       0.69953000
   221  H          0.48280000       0.24420000       0.23070000
   222  H          0.51720000       0.75580000       0.73070000
   223  H          0.98280000       0.25580000       0.23070000
   224  H          0.01720000       0.74420000       0.73070000
   225  C          0.44874000       0.34520000       0.16613000
   226  C          0.55126000       0.65480000       0.66613000
   227  C          0.94874000       0.15480000       0.16613000
   228  C          0.05126000       0.84520000       0.66613000
   229  C          0.39374000       0.53920000       0.17893000
   230  C          0.60626000       0.46080000       0.67893000
   231  C          0.89374000       0.96080000       0.17893000
   232  C          0.10626000       0.03920000       0.67893000
