data_DUTNUC
_symmetry_space_group_name_H-M    'P1'
_symmetry_Int_Tables_number       1
loop_
_symmetry_equiv_pos_site_id
_symmetry_equiv_pos_as_xyz
1 x,y,z
_cell_length_a                   4.03664
_cell_length_b                   9.31451
_cell_length_c                   14.007714
_cell_angle_alpha                94.0303
_cell_angle_beta                 95.0603
_cell_angle_gamma                90.9033
loop_
_atom_site_label
_atom_site_type_symbol
_atom_site_fract_x
_atom_site_fract_y
_atom_site_fract_z
     1  N          0.64925120       0.45378500       0.20997300
     2  N          0.35074880       0.54621500       0.79002700
     3  H          0.57640000       0.37000000       0.18700000
     4  H          0.42360000       0.63000000       0.81300000
     5  N          0.31601120       0.55122500       0.09009300
     6  N          0.68398880       0.44877500       0.90990700
     7  H          0.24040000       0.46620000       0.07120000
     8  H          0.75960000       0.53380000       0.92880000
     9  H          0.24510000       0.62410000       0.06050000
    10  H          0.75490000       0.37590000       0.93950000
    11  C          0.54215130       0.56996500       0.16485400
    12  C          0.45784870       0.43003500       0.83514600
    13  C          0.67623130       0.70674500       0.20110400
    14  C          0.32376870       0.29325500       0.79889600
    15  H          0.61470000       0.78900000       0.17060000
    16  H          0.38530000       0.21100000       0.82940000
    17  C          0.89669130       0.71642600       0.28125400
    18  C          0.10330870       0.28357400       0.71874600
    19  H         -0.01550000       0.80620000       0.30480000
    20  H          0.01550000       0.19380000       0.69520000
    21  C         -0.00492870       0.59304600       0.32951400
    22  C          0.00492870       0.40695400       0.67048600
    23  C          0.86767130       0.46307600       0.29027400
    24  C          0.13232870       0.53692400       0.70972600
    25  H          0.93110000       0.37950000       0.31890000
    26  H          0.06890000       0.62050000       0.68110000
    27  C          0.21690150       0.60555700       0.42149400
    28  C          0.78309850       0.39444300       0.57850600
    29  H          0.10010000       0.65170000       0.47160000
    30  H          0.89990000       0.34830000       0.52840000
    31  H          0.41230000       0.66170000       0.41310000
    32  H          0.58770000       0.33830000       0.58690000
    33  H          0.28030000       0.51120000       0.43880000
    34  H          0.71970000       0.48880000       0.56120000
    35  O          0.27081160       0.19332600       0.39352400
    36  O          0.72918840       0.80667400       0.60647600
    37  O          0.49662140       0.03168500       0.29314300
    38  O          0.50337860       0.96831500       0.70685700
    39  H          0.42570000       0.08490000       0.25220000
    40  H          0.57430000       0.91510000       0.74780000
    41  C          0.42204150       0.08387600       0.37847400
    42  C          0.57795850       0.91612400       0.62152600
    43  C          0.54504150      -0.00956600       0.45556400
    44  C          0.45495850       0.00956600       0.54443600
    45  H          0.68890000       0.91670000       0.44100000
    46  H          0.31110000       0.08330000       0.55900000
    47  O          0.10076140       0.26911500       0.02053300
    48  O          0.89923860       0.73088500       0.97946700
    49  O          0.34405130       0.19338500       0.15605300
    50  O          0.65594870       0.80661500       0.84394700
    51  C          0.17514140       0.17185600       0.07482400
    52  C          0.82485860       0.82814400       0.92517600
    53  C          0.06922150       0.01973600       0.04396400
    54  C          0.93077850       0.98026400       0.95603600
    55  H          0.10140000       0.94990000       0.08800000
    56  H          0.89860000       0.05010000       0.91200000
