data_DUWPUH
_symmetry_space_group_name_H-M    'P1'
_symmetry_Int_Tables_number       1
loop_
_symmetry_equiv_pos_site_id
_symmetry_equiv_pos_as_xyz
1 x,y,z
_cell_length_a                   8.43033
_cell_length_b                   14.77426
_cell_length_c                   16.98057
_cell_angle_alpha                71.84701
_cell_angle_beta                 89.17001
_cell_angle_gamma                88.32701
loop_
_atom_site_label
_atom_site_type_symbol
_atom_site_fract_x
_atom_site_fract_y
_atom_site_fract_z
     1  Br         0.70139400       0.97428200       0.64025119
     2  Br         0.29860600       0.02571800       0.35974881
     3  Br         0.27189400       0.81062200       0.67334218
     4  Br         0.72810600       0.18937800       0.32665782
     5  Cl         0.70918100       0.92826600       0.14469500
     6  Cl         0.29081900       0.07173400       0.85530500
     7  O          0.56773000       0.87382000       0.16737190
     8  O          0.43227000       0.12618000       0.83262810
     9  O          0.77864000       0.94042000       0.21737160
    10  O          0.22136000       0.05958000       0.78262840
    11  O          0.81934000       0.87853000       0.10993000
    12  O          0.18066000       0.12147000       0.89007000
    13  O          0.67344000       0.01852000       0.08776190
    14  O          0.32656000       0.98148000       0.91223810
    15  Cl         0.34996100       0.53687600       0.24295400
    16  Cl         0.65003900       0.46312400       0.75704600
    17  O          0.45665000       0.45712000       0.26418180
    18  O          0.54335000       0.54288000       0.73581820
    19  O          0.25303000       0.53701190       0.17453150
    20  O          0.74697000       0.46298810       0.82546850
    21  O          0.44313000       0.62102000       0.21878170
    22  O          0.55687000       0.37898000       0.78121830
    23  O          0.25483000       0.53942000       0.31172160
    24  O          0.74517000       0.46058000       0.68827840
    25  O          0.87707000       0.27149150      -0.00602870
    26  O          0.12293000       0.72850850       0.00602870
    27  O          0.95867000       0.33642150       0.11121120
    28  O          0.04133000       0.66357850       0.88878880
    29  N          0.61673000       0.84751180       0.89662160
    30  N          0.38327000       0.15248820       0.10337840
    31  N          0.12723000       0.85752000       0.83577190
    32  N          0.87277000       0.14248000       0.16422810
    33  C          0.59254000       0.80912000       0.97862000
    34  C          0.40746000       0.19088000       0.02138000
    35  C          0.52754000       0.72202000       0.01042000
    36  C          0.47246000       0.27798000       0.98958000
    37  C          0.48953000       0.66902000       0.95891180
    38  C          0.51047000       0.33098000       0.04108820
    39  C          0.50714000       0.71292000       0.87392000
    40  C          0.49286000       0.28708000       0.12608000
    41  C          0.57034000       0.80212000       0.84412000
    42  C          0.42966000       0.19788000       0.15588000
    43  C          0.44174000       0.56792000      -0.00014820
    44  C          0.55826000       0.43208000       0.00014820
    45  C          0.41814000       0.49902000       0.94918190
    46  C          0.58186000       0.50098000       0.05081810
    47  C          0.26073000       0.45202000       0.95491180
    48  C          0.73927000       0.54798000       0.04508820
    49  C          0.20864000       0.42232000       0.89095190
    50  C          0.79136000       0.57768000       0.10904810
    51  C          0.07904000       0.36422000       0.90092000
    52  C          0.92096000       0.63578000       0.09908000
    53  C          0.00083000       0.33422000       0.97542180
    54  C         -0.00083000       0.66578000       0.02457820
    55  C          0.04744000       0.36722000       0.04028180
    56  C          0.95256000       0.63278000       0.95971820
    57  C          0.17604000       0.42532000       0.02995190
    58  C          0.82396000       0.57468000       0.97004810
    59  C          0.84126000       0.22653000       0.93302000
    60  C          0.15874000       0.77347000       0.06698000
    61  C          0.00995000       0.36433000       0.18062000
    62  C         -0.00995000       0.63567000       0.81938000
    63  C          0.70104000       0.93992000       0.86692000
    64  C          0.29896000       0.06008000       0.13308000
    65  C          0.87934000       0.92462000       0.88012000
    66  C          0.12066000       0.07538000       0.11988000
    67  C          0.95794000       0.88463000       0.81662000
    68  C          0.04206000       0.11537000       0.18338000
    69  H          0.18040000       0.84420000       0.79520000
    70  H          0.81960000       0.15580000       0.20480000
    71  H          0.13240000       0.81630000       0.87620000
    72  H          0.86760000       0.18370000       0.12380000
    73  H          0.17640000       0.90330000       0.84220000
    74  H          0.82360000       0.09670000       0.15780000
    75  H          0.61240000       0.83920000       0.00820000
    76  H          0.38760000       0.16080000      -0.00820000
    77  H          0.51240000       0.69720000       0.06201900
    78  H          0.48760000       0.30280000       0.93798100
    79  H          0.47840000       0.69020000       0.83920000
    80  H          0.52160000       0.30980000       0.16080000
    81  H          0.58050000       0.82730000       0.79120000
    82  H          0.41950000       0.17270000       0.20880000
    83  H          0.35530000       0.57211900       0.03281700
    84  H          0.64470000       0.42788100       0.96718300
    85  H          0.44740000       0.52420000       0.89720000
    86  H          0.55260000       0.47580000       0.10280000
    87  H          0.25340000       0.43830000       0.84920000
    88  H          0.74660000       0.56170000       0.15080000
    89  H          0.05040000       0.34420000       0.86311900
    90  H          0.94960000       0.65580000       0.13688100
    91  H          0.20040000       0.44220000       0.06820000
    92  H          0.79960000       0.55780000       0.93180000
    93  H          0.77150000       0.17930000       0.95620000
    94  H          0.22850000       0.82070000       0.04380000
    95  H          0.93660000       0.19620000       0.91841800
    96  H          0.06340000       0.80380000       0.08158200
    97  H          0.79660000       0.27120000       0.88620000
    98  H          0.20340000       0.72880000       0.11380000
    99  H          0.93450000       0.34230000       0.22220000
   100  H          0.06550000       0.65770000       0.77780000
   101  H          0.00540000       0.43620000       0.16691900
   102  H         -0.00540000       0.56380000       0.83308100
   103  H          0.11840000       0.34220000       0.19820000
   104  H          0.88160000       0.65780000       0.80180000
   105  H          0.66640000       0.97620000       0.89651900
   106  H          0.33360000       0.02380000       0.10348100
   107  H          0.67440000       0.96420000       0.81220000
   108  H          0.32560000       0.03580000       0.18780000
   109  H          0.91540000       0.98330000       0.87620000
   110  H          0.08460000       0.01670000       0.12380000
   111  H          0.91040000       0.88620000       0.93220000
   112  H          0.08960000       0.11380000       0.06780000
   113  H          0.90850000       0.82630000       0.81620000
   114  H          0.09150000       0.17370000       0.18380000
   115  H          0.96340000       0.93130000       0.76420000
   116  H          0.03660000       0.06870000       0.23580000
   117  H          0.86760000       0.18430000       0.12420000
   118  H          0.13240000       0.81570000       0.87580000
   119  H          0.82360000       0.09730000       0.15820000
   120  H          0.17640000       0.90270000       0.84180000
   121  H          0.42050000       0.17330000       0.20920000
   122  H          0.57950000       0.82670000       0.79080000
   123  H          0.74740000       0.56230000       0.15120000
   124  H          0.25260000       0.43770000       0.84880000
   125  H          0.22850000       0.82130000       0.04420000
   126  H          0.77150000       0.17870000       0.95580000
   127  H          0.06550000       0.65830000       0.77820000
   128  H          0.93450000       0.34170000       0.22180000
   129  H          0.08540000       0.01730000       0.12420000
   130  H          0.91460000       0.98270000       0.87580000
   131  H          0.09250000       0.17430000       0.18420000
   132  H          0.90750000       0.82570000       0.81580000
   133  H          0.03740000       0.06930000       0.23620000
   134  H          0.96260000       0.93070000       0.76380000
   135  O          0.88378000       0.25646150       0.63217120
   136  O          0.11622000       0.74353850       0.36782880
   137  O          0.94178000       0.34742140       0.47963120
   138  O          0.05822000       0.65257860       0.52036880
   139  N          0.60083000       0.84455170       0.44608160
   140  N          0.39917000       0.15544830       0.55391840
   141  N          0.11723000       0.84992000       0.48895180
   142  N          0.88277000       0.15008000       0.51104820
   143  C          0.56574000       0.81842000       0.37892000
   144  C          0.43426000       0.18158000       0.62108000
   145  C          0.50254000       0.73132000       0.38842000
   146  C          0.49746000       0.26868000       0.61158000
   147  C          0.47703000       0.66732000       0.46766190
   148  C          0.52297000       0.33268000       0.53233810
   149  C          0.50364000       0.69892000       0.53482000
   150  C          0.49636000       0.30108000       0.46518000
   151  C          0.56474000       0.78822000       0.52292000
   152  C          0.43526000       0.21178000       0.47708000
   153  C          0.43574000       0.56832000       0.47127190
   154  C          0.56426000       0.43168000       0.52872810
   155  C          0.42054000       0.48912000       0.55511180
   156  C          0.57946000       0.51088000       0.44488820
   157  C          0.26803000       0.43682000       0.57651180
   158  C          0.73197000       0.56318000       0.42348820
   159  C          0.22954000       0.39142000       0.65844190
   160  C          0.77046000       0.60858000       0.34155810
   161  C          0.10214000       0.33112000       0.67988190
   162  C          0.89786000       0.66888000       0.32011810
   163  C          0.00843000       0.31642000       0.61901180
   164  C         -0.00843000       0.68358000       0.38098820
   165  C          0.04313000       0.36472000       0.53561180
   166  C          0.95687000       0.63528000       0.46438820
   167  C          0.17194000       0.42322000       0.51494190
   168  C          0.82806000       0.57678000       0.48505810
   169  C          0.84926000       0.20363000       0.71642000
   170  C          0.15074000       0.79637000       0.28358000
   171  C          0.98106000       0.38692000       0.39340190
   172  C          0.01894000       0.61308000       0.60659810
   173  C          0.68564000       0.93472000       0.43302000
   174  C          0.31436000       0.06528000       0.56698000
   175  C          0.86354000       0.92042000       0.42092000
   176  C          0.13646000       0.07958000       0.57908000
   177  C          0.94594000       0.86782000       0.50202000
   178  C          0.05406000       0.13218000       0.49798000
   179  H          0.17140000       0.83320000       0.54020000
   180  H          0.82860000       0.16680000       0.45980000
   181  H          0.17050000       0.90230000       0.45620000
   182  H          0.82950000       0.09770000       0.54380000
   183  H          0.12840000       0.80830000       0.46820000
   184  H          0.87160000       0.19170000       0.53180000
   185  H          0.58440000       0.86320000       0.32881800
   186  H          0.41560000       0.13680000       0.67118200
   187  H          0.48440000       0.71520000       0.34020000
   188  H          0.51560000       0.28480000       0.65980000
   189  H          0.48940000       0.66520000       0.58120000
   190  H          0.51060000       0.33480000       0.41880000
   191  H          0.58940000       0.80920000       0.56620000
   192  H          0.41060000       0.19080000       0.43380000
   193  H          0.35040000       0.57320000       0.43801800
   194  H          0.64960000       0.42680000       0.56198200
   195  H          0.45340000       0.50520000       0.59720000
   196  H          0.54660000       0.49480000       0.40280000
   197  H          0.29440000       0.39720000       0.69920000
   198  H          0.70560000       0.60280000       0.30080000
   199  H          0.07440000       0.29820000       0.73420000
   200  H          0.92560000       0.70180000       0.26580000
   201  H          0.19040000       0.45220000       0.46420000
   202  H          0.80960000       0.54780000       0.53580000
   203  H          0.76160000       0.15820000       0.71571900
   204  H          0.23840000       0.84180000       0.28428100
   205  H          0.80360000       0.24730000       0.74720000
   206  H          0.19640000       0.75270000       0.25280000
   207  H          0.94660000       0.17020000       0.74420000
   208  H          0.05340000       0.82980000       0.25580000
   209  H          0.89960000       0.36720000       0.36620000
   210  H          0.10040000       0.63280000       0.63380000
   211  H          0.08940000       0.36220000       0.37920000
   212  H          0.91060000       0.63780000       0.62080000
   213  H          0.98360000       0.45920000       0.37520000
   214  H          0.01640000       0.54080000       0.62480000
   215  H          0.65740000       0.95420000       0.47920000
   216  H          0.34260000       0.04580000       0.52080000
   217  H          0.64240000       0.97920000       0.38720000
   218  H          0.35760000       0.02080000       0.61280000
   219  H          0.91340000       0.97720000       0.39941900
   220  H          0.08660000       0.02280000       0.60058100
   221  H          0.87940000       0.88020000       0.38771800
   222  H          0.12060000       0.11980000       0.61228200
   223  H          0.93240000       0.90420000       0.54020000
   224  H          0.06760000       0.09580000       0.45980000
   225  H          0.89340000       0.80320000       0.52620000
   226  H          0.10660000       0.19680000       0.47380000
   227  H          0.82950000       0.09830000       0.54420000
   228  H          0.17050000       0.90170000       0.45580000
   229  H          0.87160000       0.19230000       0.53220000
   230  H          0.12840000       0.80770000       0.46780000
   231  H          0.19640000       0.75330000       0.25320000
   232  H          0.80360000       0.24670000       0.74680000
