data_EBIHUT
_symmetry_space_group_name_H-M    'P1'
_symmetry_Int_Tables_number       1
loop_
_symmetry_equiv_pos_site_id
_symmetry_equiv_pos_as_xyz
1 x,y,z
_cell_length_a                   5.24475
_cell_length_b                   7.91976
_cell_length_c                   9.68031
_cell_angle_alpha                84.07812
_cell_angle_beta                 85.71111
_cell_angle_gamma                75.1479
loop_
_atom_site_label
_atom_site_type_symbol
_atom_site_fract_x
_atom_site_fract_y
_atom_site_fract_z
     1  N          0.33253000       0.37780180       0.13554150
     2  N          0.66747000       0.62219820       0.86445850
     3  C          0.17733000       0.30846180       0.11024160
     4  C          0.82267000       0.69153820       0.88975840
     5  C          0.98017000       0.21922000       0.07654190
     6  C          0.01983000       0.78078000       0.92345810
     7  H          0.87340000       0.29340000       0.00930000
     8  H          0.12660000       0.70660000      -0.00930000
     9  H          0.85940000       0.19940000       0.17230000
    10  H          0.14060000       0.80060000       0.82770000
    11  C          0.10593000       0.04110180       0.02144150
    12  C          0.89407000       0.95889820       0.97855850
    13  H          0.21850000       0.06030000       0.94170000
    14  H          0.78150000       0.93970000       0.05830000
    15  H          0.20750000       0.96870000       0.09020000
    16  H          0.79250000       0.03130000       0.90980000
    17  I          0.55711816       0.61179110       0.28999480
    18  I          0.44288184       0.38820890       0.71000520
    19  C          0.69373000       0.78554170       0.40595140
    20  C          0.30627000       0.21445830       0.59404860
    21  C          0.46072000       0.93150160       0.45952130
    22  C          0.53928000       0.06849840       0.54047870
    23  F          0.82674190       0.69552120       0.51411100
    24  F          0.17325810       0.30447880       0.48588900
    25  F          0.86024190       0.86118130       0.32431110
    26  F          0.13975810       0.13881870       0.67568890
    27  F          0.32844190       0.01715120       0.34901100
    28  F          0.67155810       0.98284880       0.65098900
    29  F          0.29999180       0.85377120       0.54264100
    30  F          0.70000820       0.14622880       0.45735900
