data_EBIHIH
_symmetry_space_group_name_H-M    'P1'
_symmetry_Int_Tables_number       1
loop_
_symmetry_equiv_pos_site_id
_symmetry_equiv_pos_as_xyz
1 x,y,z
_cell_length_a                   7.7522
_cell_length_b                   6.355714
_cell_length_c                   12.9913
_cell_angle_alpha                90.0
_cell_angle_beta                 95.153
_cell_angle_gamma                90.0
loop_
_atom_site_label
_atom_site_type_symbol
_atom_site_fract_x
_atom_site_fract_y
_atom_site_fract_z
     1  N          0.58475000       0.95284000       0.26953000
     2  N          0.91525000       0.45284000       0.23047000
     3  N          0.41525000       0.04716000       0.73047000
     4  N          0.08475000       0.54716000       0.76953000
     5  C          0.71645000       0.92364000       0.31543000
     6  C          0.78355000       0.42364000       0.18457000
     7  C          0.28355000       0.07636000       0.68457000
     8  C          0.21645000       0.57636000       0.81543000
     9  C          0.88195000       0.88583000       0.37463000
    10  C          0.61805000       0.38583000       0.12537000
    11  C          0.11805000       0.11417000       0.62537000
    12  C          0.38195000       0.61417000       0.87463000
    13  H          0.97580000       0.90510000       0.32850000
    14  H          0.52420000       0.40510000       0.17150000
    15  H          0.02420000       0.09490000       0.67150000
    16  H          0.47580000       0.59490000       0.82850000
    17  H          0.89560000       0.72720000       0.39130000
    18  H          0.60440000       0.22720000       0.10870000
    19  H          0.10440000       0.27280000       0.60870000
    20  H          0.39560000       0.77280000       0.89130000
    21  C          0.91315000       0.02806000       0.47003000
    22  C          0.58685000       0.52806000       0.02997000
    23  C          0.08685000       0.97194000       0.52997000
    24  C          0.41315000       0.47194000       0.97003000
    25  H          0.90850000       0.16470000       0.45730000
    26  H          0.59150000       0.66470000       0.04270000
    27  H          0.09150000       0.83530000       0.54270000
    28  H          0.40850000       0.33530000       0.95730000
    29  H          0.82470000       0.01480000       0.52540000
    30  H          0.67530000       0.51480000       0.97460000
    31  H          0.17530000      -0.01480000       0.47460000
    32  H          0.32470000       0.48520000       0.02540000
    33  H          0.02580000       0.09490000       0.67250000
    34  H          0.47420000       0.59490000       0.82750000
    35  H          0.97420000       0.90510000       0.32750000
    36  H          0.52580000       0.40510000       0.17250000
    37  H          0.17670000      -0.01480000       0.47540000
    38  H          0.32330000       0.48520000       0.02460000
    39  H          0.82330000       0.01480000       0.52460000
    40  H          0.67670000       0.51480000       0.97540000
    41  C          0.00915000       0.91774000       0.04383000
    42  C          0.49085000       0.41774000       0.45617000
    43  C         -0.00915000       0.08226000       0.95617000
    44  C          0.50915000       0.58226000       0.54383000
    45  I          0.24708300       0.94431600       0.14023216
    46  I          0.25291700       0.44431600       0.35976784
    47  I          0.75291700       0.05568400       0.85976784
    48  I          0.74708300       0.55568400       0.64023216
    49  F          0.87387000       0.94276000       0.10170170
    50  F          0.62613000       0.44276000       0.39829830
    51  F          0.12613000       0.05724000       0.89829830
    52  F          0.37387000       0.55724000       0.60170170
    53  F         -0.00443000       0.72387000       0.00148150
    54  F          0.50443000       0.22387000       0.49851850
    55  F          0.00443000       0.27613000      -0.00148150
    56  F          0.49557000       0.77613000       0.50148150
