data_EBIJOP
_symmetry_space_group_name_H-M    'P1'
_symmetry_Int_Tables_number       1
loop_
_symmetry_equiv_pos_site_id
_symmetry_equiv_pos_as_xyz
1 x,y,z
_cell_length_a                   5.400816
_cell_length_b                   7.2142
_cell_length_c                   16.0654
_cell_angle_alpha                88.7138
_cell_angle_beta                 87.8548
_cell_angle_gamma                72.4531
loop_
_atom_site_label
_atom_site_type_symbol
_atom_site_fract_x
_atom_site_fract_y
_atom_site_fract_z
     1  I          0.60260500       0.82883400       0.27209117
     2  I          0.39739500       0.17116600       0.72790883
     3  C          0.75489000       0.02006000       0.19733000
     4  C          0.24511000       0.97994000       0.80267000
     5  F          0.95396000       0.92055000       0.15202000
     6  F          0.04604000       0.07945000       0.84798000
     7  F          0.83918000       0.13045000       0.24722000
     8  F          0.16082000       0.86955000       0.75278000
     9  C          0.55317000       0.15475000       0.14092000
    10  C          0.44683000       0.84525000       0.85908000
    11  F          0.36395000       0.26514000       0.18829180
    12  F          0.63605000       0.73486000       0.81170820
    13  F          0.45286000       0.04594000       0.09632170
    14  F          0.54714000       0.95406000       0.90367830
    15  C          0.65657000       0.28725000       0.08152000
    16  C          0.34343000       0.71275000       0.91848000
    17  F          0.82015000       0.17384000       0.02660170
    18  F          0.17985000       0.82616000       0.97339830
    19  F          0.78836000       0.37814000       0.12453180
    20  F          0.21164000       0.62186000       0.87546820
    21  C          0.44807000       0.44186000       0.03332000
    22  C          0.55193000       0.55814000       0.96668000
    23  F          0.30386000       0.56494000       0.08834170
    24  F          0.69614000       0.43506000       0.91165830
    25  F          0.29616000       0.35544000      -0.00275180
    26  F          0.70384000       0.64456000       0.00275180
    27  C          0.24529000      -0.01994000       0.80267000
    28  N          0.40438000       0.55776000       0.38353000
    29  N          0.59562000       0.44224000       0.61647000
    30  C          0.26958000       0.46466000       0.38593000
    31  C          0.73042000       0.53534000       0.61407000
    32  C          0.09691000       0.34317000       0.38953000
    33  C          0.90309000       0.65683000       0.61047000
    34  C          0.16058000       0.19336000       0.45923000
    35  C          0.83942000       0.80664000       0.54077000
    36  C          0.97451000       0.07327000       0.46423000
    37  C          0.02549000       0.92673000       0.53577000
    38  H          0.11180000       0.28960000       0.34430000
    39  H          0.88820000       0.71040000       0.65570000
    40  H          0.91990000       0.42160000       0.40130000
    41  H          0.08010000       0.57840000       0.59870000
    42  H          0.15380000       0.25760000       0.51330000
    43  H          0.84620000       0.74240000       0.48670000
    44  H          0.32780000       0.11250000       0.44820000
    45  H          0.67220000       0.88750000       0.55180000
    46  H          0.97830000       0.00450000       0.41620000
    47  H          0.02170000      -0.00450000       0.58380000
    48  H          0.80610000       0.14860000       0.47030000
    49  H          0.19390000       0.85140000       0.52970000
