data_EBIJIJ
_symmetry_space_group_name_H-M    'P1'
_symmetry_Int_Tables_number       1
loop_
_symmetry_equiv_pos_site_id
_symmetry_equiv_pos_as_xyz
1 x,y,z
_cell_length_a                   5.24096
_cell_length_b                   9.73939
_cell_length_c                   10.38741
_cell_angle_alpha                79.6651
_cell_angle_beta                 76.97211
_cell_angle_gamma                84.6911
loop_
_atom_site_label
_atom_site_type_symbol
_atom_site_fract_x
_atom_site_fract_y
_atom_site_fract_z
     1  N          0.35213000       0.14880150       0.40413140
     2  N          0.64787000       0.85119850       0.59586860
     3  C          0.19853000       0.12174160       0.35181140
     4  C          0.80147000       0.87825840       0.64818860
     5  C          0.00713000       0.08623190       0.28083150
     6  C         -0.00713000       0.91376810       0.71916850
     7  H          0.90050000       0.17530000       0.26530000
     8  H          0.09950000       0.82470000       0.73470000
     9  H          0.90660000       0.01420000       0.33520000
    10  H          0.09340000       0.98580000       0.66480000
    11  C          0.13763000       0.04880140       0.14366130
    12  C          0.86237000       0.95119860       0.85633870
    13  H          0.23530000       0.12221700       0.09191700
    14  H          0.76470000       0.87778300       0.90808300
    15  H          0.25040000       0.96880000       0.16020000
    16  H          0.74960000       0.03120000       0.83980000
    17  C          0.93677000       0.01852150       0.06867130
    18  C          0.06323000       0.98147850       0.93132870
    19  H          0.81560000       0.10120000       0.05471900
    20  H          0.18440000       0.89880000       0.94528100
    21  H          0.83160000       0.93980000       0.12320000
    22  H          0.16840000       0.06020000       0.87680000
    23  I          0.58761315       0.28519380       0.57976970
    24  I          0.41238685       0.71480620       0.42023030
    25  C          0.73763000       0.38555140       0.71306130
    26  C          0.26237000       0.61444860       0.28693870
    27  C          0.51942000       0.42026130       0.83139120
    28  C          0.48058000       0.57973870       0.16860880
    29  C          0.61172000       0.48065130       0.94164120
    30  C          0.38828000       0.51934870       0.05835880
    31  F          0.85127180       0.50344900       0.64775900
    32  F          0.14872820       0.49655100       0.35224100
    33  F          0.92296170       0.29958100       0.76266900
    34  F          0.07703830       0.70041900       0.23733100
    35  F          0.34434170       0.51223100       0.78239800
    36  F          0.65565830       0.48776900       0.21760200
    37  F          0.39895180       0.30204900       0.89129800
    38  F          0.60104820       0.69795100       0.10870200
    39  F          0.74129190       0.59626100       0.88277900
    40  F          0.25870810       0.40373900       0.11722100
    41  F          0.77940190       0.38589100      -0.00644100
    42  F          0.22059810       0.61410900       0.00644100
