data_EBIJAB
_symmetry_space_group_name_H-M    'P1'
_symmetry_Int_Tables_number       1
loop_
_symmetry_equiv_pos_site_id
_symmetry_equiv_pos_as_xyz
1 x,y,z
_cell_length_a                   5.31838
_cell_length_b                   7.036911
_cell_length_c                   13.4152
_cell_angle_alpha                75.8658
_cell_angle_beta                 86.01212
_cell_angle_gamma                71.8559
loop_
_atom_site_label
_atom_site_type_symbol
_atom_site_fract_x
_atom_site_fract_y
_atom_site_fract_z
     1  I          0.64212400       0.42219300       0.26457317
     2  I          0.35787600       0.57780700       0.73542683
     3  C          0.95356000       0.26265000       0.17763000
     4  C          0.04644000       0.73735000       0.82237000
     5  C          0.84506000       0.16805000       0.10332000
     6  C          0.15494000       0.83195000       0.89668000
     7  C          0.05706000       0.04025000       0.03993000
     8  C          0.94294000       0.95975000       0.96007000
     9  F          0.08016000       0.39035000       0.12312000
    10  F          0.91984000       0.60965000       0.87688000
    11  F          0.12935000       0.10944000       0.24212000
    12  F          0.87065000       0.89056000       0.75788000
    13  F          0.67545000       0.32234000       0.03847180
    14  F          0.32455000       0.67766000       0.96152820
    15  F          0.71345000       0.04424000       0.15942000
    16  F          0.28655000       0.95576000       0.84058000
    17  F          0.20565000       0.15505000      -0.01002000
    18  F          0.79435000       0.84495000       0.01002000
    19  F          0.21246000       0.87706000       0.10612000
    20  F          0.78754000       0.12294000       0.89388000
    21  N          0.19297000       0.62545000       0.39413000
    22  N          0.80703000       0.37455000       0.60587000
    23  C          0.97183000       0.70986000       0.40313000
    24  C          0.02817000       0.29014000       0.59687000
    25  C          0.69213000       0.81606000       0.41583000
    26  C          0.30787000       0.18394000       0.58417000
    27  C          0.64563000       0.94335000       0.49603000
    28  C          0.35437000       0.05665000       0.50397000
    29  H          0.59687000       0.72611000       0.43450000
    30  H          0.40313000       0.27389000       0.56550000
    31  H          0.61990000       0.90770000       0.35240000
    32  H          0.38010000       0.09230000       0.64760000
    33  H          0.71689000       0.85780000       0.56040000
    34  H          0.28311000       0.14220000       0.43960000
    35  H          0.73689000       0.03190000       0.48140000
    36  H          0.26311000       0.96810000       0.51860000
    37  H          0.40287000       0.27411000       0.56650000
    38  H          0.59713000       0.72589000       0.43350000
    39  H          0.37990000       0.09370000       0.64840000
    40  H          0.62010000       0.90630000       0.35160000
    41  H          0.28289000       0.14380000       0.44040000
    42  H          0.71711000       0.85620000       0.55960000
    43  H          0.26289000       0.96990000       0.51940000
    44  H          0.73711000       0.03010000       0.48060000
