data_ECEBOE
_symmetry_space_group_name_H-M    'P1'
_symmetry_Int_Tables_number       1
loop_
_symmetry_equiv_pos_site_id
_symmetry_equiv_pos_as_xyz
1 x,y,z
_cell_length_a                   12.5552
_cell_length_b                   10.6062
_cell_length_c                   9.4522
_cell_angle_alpha                90.0
_cell_angle_beta                 99.4401
_cell_angle_gamma                90.0
loop_
_atom_site_label
_atom_site_type_symbol
_atom_site_fract_x
_atom_site_fract_y
_atom_site_fract_z
     1  Cl         0.93703600       0.28342600       0.49728700
     2  Cl         0.06296400       0.78342600       0.00271300
     3  Cl         0.06296400       0.71657400       0.50271300
     4  Cl         0.93703600       0.21657400      -0.00271300
     5  C          0.43183180       0.25052000       0.21373000
     6  C          0.56816820       0.75052000       0.28627000
     7  C          0.56816820       0.74948000       0.78627000
     8  C          0.43183180       0.24948000       0.71373000
     9  N          0.46387170       0.36568180       0.25022000
    10  N          0.53612830       0.86568180       0.24978000
    11  N          0.53612830       0.63431820       0.74978000
    12  N          0.46387170       0.13431820       0.75022000
    13  S          0.56700500       0.38061500       0.38090600
    14  S          0.43299500       0.88061500       0.11909400
    15  S          0.43299500       0.61938500       0.61909400
    16  S          0.56700500       0.11938500       0.88090600
    17  N          0.67382160       0.37826190       0.28792000
    18  N          0.32617840       0.87826190       0.21208000
    19  N          0.32617840       0.62173810       0.71208000
    20  N          0.67382160       0.12173810       0.78792000
    21  S          0.72958500       0.25192600       0.26204700
    22  S          0.27041500       0.75192600       0.23795300
    23  S          0.27041500       0.74807400       0.73795300
    24  S          0.72958500       0.24807400       0.76204700
    25  N          0.67816160       0.12488190       0.29502000
    26  N          0.32183840       0.62488190       0.20498000
    27  N          0.32183840       0.87511810       0.70498000
    28  N          0.67816160       0.37511810       0.79502000
    29  S          0.56855500       0.12306500       0.38368600
    30  S          0.43144500       0.62306500       0.11631400
    31  S          0.43144500       0.87693500       0.61631400
    32  S          0.56855500       0.37693500       0.88368600
    33  N          0.46664170       0.13580170       0.25182000
    34  N          0.53335830       0.63580170       0.24818000
    35  N          0.53335830       0.86419830       0.74818000
    36  N          0.46664170       0.36419830       0.75182000
    37  N          0.57718180       0.25270170       0.47732000
    38  N          0.42281820       0.75270170       0.02268000
    39  N          0.42281820       0.74729830       0.52268000
    40  N          0.57718180       0.24729830       0.97732000
    41  C          0.32552000       0.24882000       0.10673000
    42  C          0.67448000       0.74882000       0.39327000
    43  C          0.67448000       0.75118000       0.89327000
    44  C          0.32552000       0.25118000       0.60673000
    45  F          0.31628150       0.34774160       0.02092000
    46  F          0.68371850       0.84774160       0.47908000
    47  F          0.68371850       0.65225840       0.97908000
    48  F          0.31628150       0.15225840       0.52092000
    49  F          0.31689140       0.14853160       0.02232000
    50  F          0.68310860       0.64853160       0.47768000
    51  F          0.68310860       0.85146840       0.97768000
    52  F          0.31689140       0.35146840       0.52232000
    53  F          0.24211140       0.24882000       0.17512000
    54  F          0.75788860       0.74882000       0.32488000
    55  F          0.75788860       0.75118000       0.82488000
    56  F          0.24211140       0.25118000       0.67512000
    57  N          0.98102000       0.50132000       0.28703000
    58  N          0.01898000       0.00132000       0.21297000
    59  N          0.01898000       0.49868000       0.71297000
    60  N          0.98102000      -0.00132000       0.78703000
    61  H          0.96930000       0.44030000       0.33740000
    62  H          0.03070000       0.94030000       0.16260000
    63  H          0.03070000       0.55970000       0.66260000
    64  H          0.96930000       0.05970000       0.83740000
    65  H         -0.00270000       0.57630000       0.34340000
    66  H          0.00270000       0.07630000       0.15660000
    67  H          0.00270000       0.42370000       0.65660000
    68  H         -0.00270000       0.92370000       0.84340000
    69  C          0.08232000       0.46383000       0.23874000
    70  C          0.91768000       0.96383000       0.26126000
    71  C          0.91768000       0.53617000       0.76126000
    72  C          0.08232000       0.03617000       0.73874000
    73  H          0.10910000       0.53390000       0.18690000
    74  H          0.89090000       0.03390000       0.31310000
    75  H          0.89090000       0.46610000       0.81310000
    76  H          0.10910000       0.96610000       0.68690000
    77  H          0.06890000       0.39060000       0.17500000
    78  H          0.93110000       0.89060000       0.32500000
    79  H          0.93110000       0.60940000       0.82500000
    80  H          0.06890000       0.10940000       0.67500000
    81  H          0.13630000       0.44190000       0.32210000
    82  H          0.86370000       0.94190000       0.17790000
    83  H          0.86370000       0.55810000       0.67790000
    84  H          0.13630000       0.05810000       0.82210000
    85  C          0.89352000       0.53113000       0.16783000
    86  C          0.10648000       0.03113000       0.33217000
    87  C          0.10648000       0.46887000       0.83217000
    88  C          0.89352000       0.96887000       0.66783000
    89  H          0.88010000       0.45810000       0.10380000
    90  H          0.11990000       0.95810000       0.39620000
    91  H          0.11990000       0.54190000       0.89620000
    92  H          0.88010000       0.04190000       0.60380000
    93  H          0.91450000       0.60350000       0.11420000
    94  H          0.08550000       0.10350000       0.38580000
    95  H          0.08550000       0.39650000       0.88580000
    96  H          0.91450000       0.89650000       0.61420000
    97  H          0.82760000       0.55150000       0.20620000
    98  H          0.17240000       0.05150000       0.29380000
    99  H          0.17240000       0.44850000       0.79380000
   100  H          0.82760000       0.94850000       0.70620000
