data_ECESAJ
_symmetry_space_group_name_H-M    'P1'
_symmetry_Int_Tables_number       1
loop_
_symmetry_equiv_pos_site_id
_symmetry_equiv_pos_as_xyz
1 x,y,z
_cell_length_a                   7.87056
_cell_length_b                   8.75847
_cell_length_c                   17.142914
_cell_angle_alpha                87.8556
_cell_angle_beta                 78.9687
_cell_angle_gamma                78.5677
loop_
_atom_site_label
_atom_site_type_symbol
_atom_site_fract_x
_atom_site_fract_y
_atom_site_fract_z
     1  O          0.70853000       0.61012000       0.43028140
     2  O          0.29147000       0.38988000       0.56971860
     3  O          0.59913000       0.23472000       0.28289120
     4  O          0.40087000       0.76528000       0.71710880
     5  H          0.62530000       0.27480000       0.32030000
     6  H          0.37470000       0.72520000       0.67970000
     7  O          0.63422000       0.02632000       0.36006120
     8  O          0.36578000       0.97368000       0.63993880
     9  O          0.66503000       0.38282000       0.39443130
    10  O          0.33497000       0.61718000       0.60556870
    11  N          0.57733000       0.76003000       0.30770180
    12  N          0.42267000       0.23997000       0.69229820
    13  C          0.44404000       0.01654000       0.11152000
    14  C          0.55596000       0.98346000       0.88848000
    15  H          0.41640000       0.07250000       0.06690000
    16  H          0.58360000       0.92750000       0.93310000
    17  C          0.47284000       0.77913000       0.18509190
    18  C          0.52716000       0.22087000       0.81490810
    19  H          0.46230000       0.67510000       0.18950000
    20  H          0.53770000       0.32490000       0.81050000
    21  C          0.42944000       0.86224000       0.12029190
    22  C          0.57056000       0.13776000       0.87970810
    23  H          0.38960000       0.81420000       0.08170000
    24  H          0.61040000       0.18580000       0.91830000
    25  C          0.59603000       0.08663000       0.29876190
    26  C          0.40397000       0.91337000       0.70123810
    27  C          0.58914000       0.59563000       0.31355180
    28  C          0.41086000       0.40437000       0.68644820
    29  H          0.66550000       0.54640000       0.26630000
    30  H          0.33450000       0.45360000       0.73370000
    31  H          0.47290000       0.57190000       0.31600000
    32  H          0.52710000       0.42810000       0.68400000
    33  C          0.49943000       0.08513000       0.16947180
    34  C          0.50057000       0.91487000       0.83052820
    35  H          0.50830000       0.18940000       0.16380000
    36  H          0.49170000       0.81060000       0.83620000
    37  C          0.66044000       0.52923000       0.38589180
    38  C          0.33956000       0.47077000       0.61410820
    39  C          0.54353000       0.00503000       0.23714160
    40  C          0.45647000      -0.00503000       0.76285840
    41  C          0.53243000       0.84593000       0.24483170
    42  C          0.46757000       0.15407000       0.75516830
    43  H          0.61130000       0.80030000       0.33931700
    44  H          0.38870000       0.19970000       0.66068300
    45  N          0.07746000       0.58336000       0.19732000
    46  N          0.92254000       0.41664000       0.80268000
    47  C          0.23375000       0.57935000       0.94987000
    48  C          0.76625000       0.42065000       0.05013000
    49  H          0.32690000       0.50340000       0.92550000
    50  H          0.67310000       0.49660000       0.07450000
    51  C          0.26255000       0.47684000       0.08363000
    52  C          0.73745000       0.52316000       0.91637000
    53  H          0.35810000       0.40050000       0.06170000
    54  H          0.64190000       0.59950000       0.93830000
    55  C          0.20957000       0.48385000       0.15864000
    56  C          0.79043000       0.51615000       0.84136000
    57  H          0.27130000       0.41040000       0.18880000
    58  H          0.72870000       0.58960000       0.81120000
    59  C          0.14508000       0.69227000       0.90597000
    60  C          0.85492000       0.30773000       0.09403000
    61  H          0.18170000       0.69410000       0.85120000
    62  H          0.81830000       0.30590000       0.14880000
    63  C          0.98435000       0.69356000       0.15443000
    64  C          0.01565000       0.30644000       0.84557000
    65  H          0.88930000       0.76580000       0.18030000
    66  H          0.11070000       0.23420000       0.81970000
    67  C          0.03564000       0.69714000       0.06682000
    68  C          0.96436000       0.30286000       0.93318000
    69  C          0.00548000       0.80066000       0.94095000
    70  C         -0.00548000       0.19934000       0.05905000
    71  H          0.94750000       0.87400000       0.90950000
    72  H          0.05250000       0.12600000       0.09050000
    73  C          0.17774000       0.58313000       0.03412000
    74  C          0.82226000       0.41687000       0.96588000
    75  C          0.94994000       0.80405000       0.01914000
    76  C          0.05006000       0.19595000       0.98086000
    77  H          0.85330000       0.87850000       0.04170000
    78  H          0.14670000       0.12150000       0.95830000
    79  C          0.20404000       0.17284000       0.41412000
    80  C          0.79596000       0.82716000       0.58588000
    81  H          0.25530000       0.21660000       0.45000000
    82  H          0.74470000       0.78340000       0.55000000
    83  N          0.23124000       0.77236000       0.48562000
    84  N          0.76876000       0.22764000       0.51438000
    85  C          0.09484000       0.79425000       0.37632000
    86  C          0.90516000       0.20575000       0.62368000
    87  H          0.04240000       0.74900000       0.34120000
    88  H          0.95760000       0.25100000       0.65880000
    89  C          0.06704000       0.19475000       0.30032000
    90  C          0.93296000       0.80525000       0.69968000
    91  H          0.02640000       0.25600000       0.25970000
    92  H          0.97360000       0.74400000       0.74030000
    93  C          0.14125000       0.26074000       0.35453000
    94  C          0.85875000       0.73926000       0.64547000
    95  H          0.14830000       0.36550000       0.35030000
    96  H          0.85170000       0.63450000       0.64970000
    97  C          0.05224000       0.04505000       0.30512000
    98  C          0.94776000       0.95495000       0.69488000
    99  H          0.00250000       0.00340000       0.26780000
   100  H         -0.00250000      -0.00340000       0.73220000
   101  C          0.15295000       0.71026000       0.43533000
   102  C          0.84705000       0.28974000       0.56467000
   103  H          0.13900000       0.60730000       0.44180000
   104  H          0.86100000       0.39270000       0.55820000
   105  C          0.25124000       0.91646000       0.48090180
   106  C          0.74876000       0.08354000       0.51909820
   107  H          0.30590000       0.95510000       0.51730000
   108  H          0.69410000       0.04490000       0.48270000
   109  C          0.18993000       0.01503000       0.42024180
   110  C          0.81007000      -0.01503000       0.57975820
   111  C          0.11174000       0.95046000       0.36625180
   112  C          0.88826000       0.04954000       0.63374820
   113  H          0.27440000       0.70560000       0.53020000
   114  H          0.72560000       0.29440000       0.46980000
