data_ECISOZ
_symmetry_space_group_name_H-M    'P1'
_symmetry_Int_Tables_number       1
loop_
_symmetry_equiv_pos_site_id
_symmetry_equiv_pos_as_xyz
1 x,y,z
_cell_length_a                   9.92743
_cell_length_b                   14.94265
_cell_length_c                   14.85795
_cell_angle_alpha                90.0
_cell_angle_beta                 92.9862
_cell_angle_gamma                90.0
loop_
_atom_site_label
_atom_site_type_symbol
_atom_site_fract_x
_atom_site_fract_y
_atom_site_fract_z
     1  C          0.47873000       0.47522000       0.54451190
     2  C          0.02127000       0.97522000       0.95548810
     3  C          0.52127000       0.52478000       0.45548810
     4  C          0.97873000       0.02478000       0.04451190
     5  C          0.36963000       0.41102000       0.51332000
     6  C          0.13037000       0.91102000       0.98668000
     7  C          0.63037000       0.58898000       0.48668000
     8  C          0.86963000       0.08898000       0.01332000
     9  C          0.59883000       0.41952000       0.57512000
    10  C          0.90117000       0.91952000       0.92488000
    11  C          0.40117000       0.58048000       0.42488000
    12  C          0.09883000       0.08048000       0.07512000
    13  C          0.20303000       0.51642000       0.69992000
    14  C          0.29697000       0.01642000       0.80008000
    15  C          0.79697000       0.48358000       0.30008000
    16  C          0.70303000       0.98358000       0.19992000
    17  C          0.13034000       0.54483000       0.62243000
    18  C          0.36966000       0.04483000       0.87757000
    19  C          0.86966000       0.45517000       0.37757000
    20  C          0.63034000       0.95517000       0.12243000
    21  C         -0.00944000       0.54483000       0.62084000
    22  C          0.50944000       0.04483000       0.87916000
    23  C          0.00944000       0.45517000       0.37916000
    24  C          0.49056000       0.95517000       0.12084000
    25  C          0.92406000       0.51893000       0.69484000
    26  C          0.57594000       0.01893000       0.80516000
    27  C          0.07594000       0.48107000       0.30516000
    28  C          0.42406000       0.98107000       0.19484000
    29  C         -0.00515000       0.48983000       0.77124000
    30  C          0.50515000       0.98983000       0.72876000
    31  C          0.00515000       0.51017000       0.22876000
    32  C          0.49485000       0.01017000       0.27124000
    33  C          0.13454000       0.48723000       0.77393000
    34  C          0.36546000       0.98723000       0.72607000
    35  C          0.86546000       0.51277000       0.22607000
    36  C          0.63454000       0.01277000       0.27393000
    37  C          0.42893000       0.62512000       0.76652000
    38  C          0.07107000       0.12512000       0.73348000
    39  C          0.57107000       0.37488000       0.23348000
    40  C          0.92893000       0.87488000       0.26652000
    41  C          0.36624000       0.64523000       0.84542000
    42  C          0.13376000       0.14523000       0.65458000
    43  C          0.63376000       0.35477000       0.15458000
    44  C          0.86624000       0.85477000       0.34542000
    45  C          0.40264000       0.72203000       0.89453000
    46  C          0.09736000       0.22203000       0.60547000
    47  C          0.59736000       0.27797000       0.10547000
    48  C          0.90264000       0.77797000       0.39453000
    49  C          0.50084000       0.77743000       0.86433000
    50  C         -0.00084000       0.27743000       0.63567000
    51  C          0.49916000       0.22257000       0.13567000
    52  C          0.00084000       0.72257000       0.36433000
    53  C          0.56305000       0.75733000       0.78623000
    54  C          0.93695000       0.25733000       0.71377000
    55  C          0.43695000       0.24267000       0.21377000
    56  C          0.06305000       0.74267000       0.28623000
    57  C          0.52884000       0.68163000       0.73702000
    58  C          0.97116000       0.18163000       0.76298000
    59  C          0.47116000       0.31837000       0.26298000
    60  C          0.02884000       0.81837000       0.23702000
    61  C          0.45203000       0.43022000       0.76372000
    62  C          0.04797000       0.93022000       0.73628000
    63  C          0.54797000       0.56978000       0.23628000
    64  C          0.95203000       0.06978000       0.26372000
    65  C          0.40204000       0.34502000       0.74262000
    66  C          0.09796000       0.84502000       0.75738000
    67  C          0.59796000       0.65498000       0.25738000
    68  C          0.90204000       0.15498000       0.24262000
    69  C          0.46614000       0.26973000       0.77933000
    70  C          0.03386000       0.76973000       0.72067000
    71  C          0.53386000       0.73027000       0.22067000
    72  C          0.96614000       0.23027000       0.27933000
    73  C          0.57814000       0.27893000       0.83753000
    74  C          0.92186000       0.77893000       0.66247000
    75  C          0.42186000       0.72107000       0.16247000
    76  C          0.07814000       0.22107000       0.33753000
    77  C          0.62744000       0.36333000       0.85943000
    78  C          0.87256000       0.86333000       0.64057000
    79  C          0.37256000       0.63667000       0.14057000
    80  C          0.12744000       0.13667000       0.35943000
    81  C          0.56524000       0.43843000       0.82272000
    82  C          0.93476000       0.93843000       0.67728000
    83  C          0.43476000       0.56157000       0.17728000
    84  C          0.06524000       0.06157000       0.32272000
    85  N          0.44293000       0.54028170       0.60734170
    86  N          0.05707000       0.04028170       0.89265830
    87  N          0.55707000       0.45971830       0.39265830
    88  N          0.94293000       0.95971830       0.10734170
    89  N          0.28363000       0.36422000       0.49130190
    90  N          0.21637000       0.86422000       0.00869810
    91  N          0.71637000       0.63578000       0.50869810
    92  N          0.78363000       0.13578000      -0.00869810
    93  N          0.69093000       0.37992000       0.60052000
    94  N          0.80907000       0.87992000       0.89948000
    95  N          0.30907000       0.62008000       0.39948000
    96  N          0.19093000       0.12008000       0.10052000
    97  P          0.38489800       0.52572600       0.70307500
    98  P          0.11510200       0.02572600       0.79692500
    99  P          0.61510200       0.47427400       0.29692500
   100  P          0.88489800       0.97427400       0.20307500
   101  H          0.32840000       0.33820000       0.70620000
   102  H          0.17160000       0.83820000       0.79380000
   103  H          0.67160000       0.66180000       0.29380000
   104  H          0.82840000       0.16180000       0.20620000
   105  H          0.58340000       0.66830000       0.68430000
   106  H          0.91660000       0.16830000       0.81570000
   107  H          0.41660000       0.33170000       0.31570000
   108  H          0.08340000       0.83170000       0.18430000
   109  H          0.18130000       0.56920000       0.57520000
   110  H          0.31870000       0.06920000       0.92480000
   111  H          0.81870000       0.43080000       0.42480000
   112  H          0.68130000       0.93080000       0.07520000
   113  H          0.59630000       0.49530000       0.83220000
   114  H          0.90370000      -0.00470000       0.66780000
   115  H          0.40370000       0.50470000       0.16780000
   116  H          0.09630000       0.00470000       0.33220000
   117  H          0.28840000       0.60530000       0.86830000
   118  H          0.21160000       0.10530000       0.63170000
   119  H          0.71160000       0.39470000       0.13170000
   120  H          0.78840000       0.89470000       0.36830000
   121  H          0.62340000       0.22430000       0.86130000
   122  H          0.87660000       0.72430000       0.63870000
   123  H          0.37660000       0.77570000       0.13870000
   124  H          0.12340000       0.27570000       0.36130000
   125  H          0.94860000       0.56020000       0.57130000
   126  H          0.55140000       0.06020000       0.92870000
   127  H          0.05140000       0.43980000       0.42870000
   128  H          0.44860000       0.93980000       0.07130000
   129  H          0.82850000       0.52330000       0.69430000
   130  H          0.67150000       0.02330000       0.80570000
   131  H          0.17150000       0.47670000       0.30570000
   132  H          0.32850000       0.97670000       0.19430000
   133  H          0.19150000       0.46730000       0.82730000
   134  H          0.30850000       0.96730000       0.67270000
   135  H          0.80850000       0.53270000       0.17270000
   136  H          0.69150000       0.03270000       0.32730000
   137  H          0.42540000       0.21030000       0.76230000
   138  H          0.07460000       0.71030000       0.73770000
   139  H          0.57460000       0.78970000       0.23770000
   140  H          0.92540000       0.28970000       0.26230000
   141  H          0.63040000       0.79830000       0.76630000
   142  H          0.86960000       0.29830000       0.73370000
   143  H          0.36960000       0.20170000       0.23370000
   144  H          0.13040000       0.70170000       0.26630000
   145  H          0.95450000       0.47340000       0.82040000
   146  H          0.54550000       0.97340000       0.67960000
   147  H          0.04550000       0.52660000       0.17960000
   148  H          0.45450000       0.02660000       0.32040000
   149  H          0.35640000       0.74330000       0.94830000
   150  H          0.14360000       0.24330000       0.55170000
   151  H          0.64360000       0.25670000       0.05170000
   152  H          0.85640000       0.75670000       0.44830000
   153  H          0.70250000       0.36930000       0.90230000
   154  H          0.79750000       0.86930000       0.59770000
   155  H          0.29750000       0.63070000       0.09770000
   156  H          0.20250000       0.13070000       0.40230000
   157  H          0.52050000       0.82940000       0.89330000
   158  H          0.97950000       0.32940000       0.60670000
   159  H          0.47950000       0.17060000       0.10670000
   160  H          0.02050000       0.67060000       0.39330000
   161  H          0.04550000       0.52740000       0.18040000
   162  H          0.45450000       0.02740000       0.31960000
   163  H          0.95450000       0.47260000       0.81960000
   164  H          0.54550000       0.97260000       0.68040000
   165  H          0.48050000       0.17140000       0.10730000
   166  H          0.01950000       0.67140000       0.39270000
   167  H          0.51950000       0.82860000       0.89270000
   168  H          0.98050000       0.32860000       0.60730000
   169  C          0.34557000       0.88035000       0.49284000
   170  C          0.15443000       0.38035000       0.00716000
   171  C          0.65443000       0.11965000       0.50716000
   172  C          0.84557000       0.61965000      -0.00716000
   173  C          0.25098000       0.81825000       0.53365000
   174  C          0.24902000       0.31825000       0.96635000
   175  C          0.74902000       0.18175000       0.46635000
   176  C          0.75098000       0.68175000       0.03365000
   177  H          0.17790000       0.85230000       0.55940000
   178  H          0.32210000       0.35230000       0.94060000
   179  H          0.82210000       0.14770000       0.44060000
   180  H          0.67790000       0.64770000       0.05940000
   181  H          0.29890000       0.78360000       0.58120000
   182  H          0.20110000       0.28360000       0.91880000
   183  H          0.70110000       0.21640000       0.41880000
   184  H          0.79890000       0.71640000       0.08120000
   185  H          0.21290000       0.77740000       0.48720000
   186  H          0.28710000       0.27740000       0.01280000
   187  H          0.78710000       0.22260000       0.51280000
   188  H          0.71290000       0.72260000       0.98720000
   189  C          0.49729000       0.84914000       0.47045000
   190  C          0.00271000       0.34914000       0.02955000
   191  C          0.50271000       0.15086000       0.52955000
   192  C         -0.00271000       0.65086000       0.97045000
   193  H          0.49390000       0.81550000       0.41370000
   194  H          0.00610000       0.31550000       0.08630000
   195  H          0.50610000       0.18450000       0.58630000
   196  H         -0.00610000       0.68450000       0.91370000
   197  H          0.53450000       0.81090000       0.51920000
   198  H          0.96550000       0.31090000       0.98080000
   199  H          0.46550000       0.18910000       0.48080000
   200  H          0.03450000       0.68910000       0.01920000
   201  H          0.55440000       0.90200000       0.46480000
   202  H          0.94560000       0.40200000       0.03520000
   203  H          0.44560000       0.09800000       0.53520000
   204  H          0.05440000       0.59800000       0.96480000
   205  O          0.31875000       0.96123000       0.48243000
   206  O          0.18125000       0.46123000       0.01757000
   207  O          0.68125000       0.03877000       0.51757000
   208  O          0.81875000       0.53877000       0.98243000
