data_ECIWIX
_symmetry_space_group_name_H-M    'P1'
_symmetry_Int_Tables_number       1
loop_
_symmetry_equiv_pos_site_id
_symmetry_equiv_pos_as_xyz
1 x,y,z
_cell_length_a                   11.80697
_cell_length_b                   12.20067
_cell_length_c                   12.92498
_cell_angle_alpha                78.6173
_cell_angle_beta                 65.7872
_cell_angle_gamma                86.6303
loop_
_atom_site_label
_atom_site_type_symbol
_atom_site_fract_x
_atom_site_fract_y
_atom_site_fract_z
     1  N          0.44007170       0.81802860       0.90038840
     2  N          0.55992830       0.18197140       0.09961160
     3  C          0.45572000       0.78589810       0.79198000
     4  C          0.54428000       0.21410190       0.20802000
     5  C          0.35742000       0.83161820       0.74944810
     6  C          0.64258000       0.16838180       0.25055190
     7  N          0.23989180       0.79588830       0.81699830
     8  N          0.76010820       0.20411170       0.18300170
     9  C          0.15252000       0.83348000       0.77838000
    10  C          0.84748000       0.16652000       0.22162000
    11  C          0.17662000       0.90458000       0.67428000
    12  C          0.82338000       0.09542000       0.32572000
    13  C          0.29772000       0.94078000       0.60568000
    14  C          0.70228000       0.05922000       0.39432000
    15  C          0.38932000       0.90388000       0.64398000
    16  C          0.61068000       0.09612000       0.35602000
    17  C          0.38262000       0.73692820       0.00800190
    18  C          0.61738000       0.26307180      -0.00800190
    19  C          0.47442000       0.66300830       0.04279190
    20  C          0.52558000       0.33699170       0.95720810
    21  N          0.58136180       0.64367840       0.95755830
    22  N          0.41863820       0.35632160       0.04244170
    23  C          0.66122000       0.57588000       0.98778000
    24  C          0.33878000       0.42412000       0.01222000
    25  C          0.63962000       0.52708000       0.10022000
    26  C          0.36038000       0.47292000       0.89978000
    27  C          0.52773000       0.54748000       0.18732000
    28  C          0.47227000       0.45252000       0.81268000
    29  C          0.44412000       0.61618000       0.15762000
    30  C          0.55588000       0.38382000       0.84238000
    31  C          0.48473190       0.91941830       0.89319810
    32  C          0.51526810       0.08058170       0.10680190
    33  O          0.52607150       0.98638870       0.79948860
    34  O          0.47392850       0.01361130       0.20051140
    35  C          0.48472000       0.94906820      -0.00022000
    36  C          0.51528000       0.05093180       0.00022000
    37  H          0.53890000       0.81450000       0.73140000
    38  H          0.46110000       0.18550000       0.26860000
    39  H          0.45230000       0.70240000       0.80430000
    40  H          0.54770000       0.29760000       0.19570000
    41  H          0.06450000       0.80830000       0.82820000
    42  H          0.93550000       0.19170000       0.17180000
    43  H          0.10800000       0.92950000       0.64910000
    44  H          0.89200000       0.07050000       0.35090000
    45  H          0.31870000      -0.00720000       0.52970000
    46  H          0.68130000       0.00720000       0.47030000
    47  H          0.47770000       0.92910000       0.59610000
    48  H          0.52230000       0.07090000       0.40390000
    49  H          0.32400000       0.68770000      -0.00130000
    50  H          0.67600000       0.31230000       0.00130000
    51  H          0.33510000       0.77880000       0.07130000
    52  H          0.66490000       0.22120000       0.92870000
    53  H          0.74120000       0.56000000       0.92500000
    54  H          0.25880000       0.44000000       0.07500000
    55  H          0.70270000       0.47830000       0.11840000
    56  H          0.29730000       0.52170000       0.88160000
    57  H          0.50790000       0.51320000       0.26990000
    58  H          0.49210000       0.48680000       0.73010000
    59  H          0.36250000       0.63190000       0.21860000
    60  H          0.63750000       0.36810000       0.78140000
    61  H          0.46110000       0.89080000       0.07190000
    62  H          0.53890000       0.10920000       0.92810000
    63  C          0.72582000       0.32021180       0.45780810
    64  C          0.27418000       0.67978820       0.54219190
    65  C          0.70184190       0.24099170       0.55836820
    66  C          0.29815810       0.75900830       0.44163180
    67  C          0.58002190       0.22107170       0.64026820
    68  C          0.41997810       0.77892830       0.35973180
    69  C          0.48276190       0.27798170       0.62113820
    70  C          0.51723810       0.72201830       0.37886180
    71  C          0.50772000       0.35674180       0.51988000
    72  C          0.49228000       0.64325820       0.48012000
    73  C          0.62962000       0.37758190       0.43848000
    74  C          0.37038000       0.62241810       0.56152000
    75  C          0.34998190       0.25799180       0.70885820
    76  C          0.65001810       0.74200820       0.29114180
    77  O          0.27540150       0.33323130       0.72056850
    78  O          0.72459850       0.66676870       0.27943150
    79  N          0.32205160       0.15208150       0.76824840
    80  N          0.67794840       0.84791850       0.23175160
    81  C          0.19672000       0.11409190       0.84988000
    82  C          0.80328000       0.88590810       0.15012000
    83  C          0.18310190       0.08139180       0.97366810
    84  C          0.81689810       0.91860820       0.02633190
    85  C          0.20852000       0.15848190       0.02762000
    86  C          0.79148000       0.84151810       0.97238000
    87  C          0.19062000       0.13002000       0.14272000
    88  C          0.80938000       0.86998000       0.85728000
    89  C          0.14732190       0.02382190       0.20636190
    90  C          0.85267810       0.97617810       0.79363810
    91  C          0.12392000       0.94601810       0.15222000
    92  C          0.87608000       0.05398190       0.84778000
    93  C          0.14212000       0.97450810       0.03662000
    94  C          0.85788000       0.02549190       0.96338000
    95  C          0.12462000      -0.00642000       0.33282000
    96  C          0.87538000       0.00642000       0.66718000
    97  N          0.21967170       0.91993830       0.35133170
    98  N          0.78032830       0.08006170       0.64866830
    99  C          0.80902000       0.17672000       0.57139810
   100  C          0.19098000       0.82328000       0.42860190
   101  O          0.91699150       0.20978160       0.51067840
   102  O          0.08300850       0.79021840       0.48932160
   103  H          0.81320000       0.33570000       0.39910000
   104  H          0.18680000       0.66430000       0.60090000
   105  H          0.56230000       0.16540000       0.71340000
   106  H          0.43770000       0.83460000       0.28660000
   107  H          0.43820000       0.39820000       0.50580000
   108  H          0.56180000       0.60180000       0.49420000
   109  H          0.64760000       0.43420000       0.36590000
   110  H          0.35240000       0.56580000       0.63410000
   111  H          0.39050000       0.09710000       0.75570000
   112  H          0.60950000       0.90290000       0.24430000
   113  H          0.13840000       0.17580000       0.84540000
   114  H          0.86160000       0.82420000       0.15460000
   115  H          0.17400000       0.04760000       0.82710000
   116  H          0.82600000       0.95240000       0.17290000
   117  H          0.24000000       0.23530000       0.98310000
   118  H          0.76000000       0.76470000       0.01690000
   119  H          0.20910000       0.18670000       0.18030000
   120  H          0.79090000       0.81330000       0.81970000
   121  H          0.09370000       0.86890000       0.19640000
   122  H          0.90630000       0.13110000       0.80360000
   123  H          0.12550000       0.91730000      -0.00150000
   124  H          0.87450000       0.08270000       0.00150000
   125  H          0.12500000       0.06380000       0.36160000
   126  H          0.87500000       0.93620000       0.63840000
   127  H          0.04160000       0.95470000       0.37710000
   128  H          0.95840000       0.04530000       0.62290000
   129  H          0.30920000       0.94240000       0.30490000
   130  H          0.69080000       0.05760000       0.69510000
   131  C          0.00722000       0.41352000       0.80618000
   132  C          0.99278000       0.58648000       0.19382000
   133  Cl         0.93586400       0.33310600       0.94589400
   134  Cl         0.06413600       0.66689400       0.05410600
   135  Cl         0.02503900       0.55272700       0.81385200
   136  Cl         0.97496100       0.44727300       0.18614800
   137  Cl         0.91514300       0.40450900       0.72991300
   138  Cl         0.08485700       0.59549100       0.27008700
   139  H          0.09140000       0.38430000       0.76480000
   140  H          0.90860000       0.61570000       0.23520000
   141  C          0.15942000       0.33332000       0.45478000
   142  C          0.84058000       0.66668000       0.54522000
   143  Cl         0.18991800       0.21718600       0.54461300
   144  Cl         0.81008200       0.78281400       0.45538700
   145  Cl         0.19813600       0.45883500       0.48198500
   146  Cl         0.80186400       0.54116500       0.51801500
   147  Cl         0.24815600       0.32688600       0.30854400
   148  Cl         0.75184400       0.67311400       0.69145600
   149  H          0.06890000       0.33150000       0.47170000
   150  H          0.93110000       0.66850000       0.52830000
