data_ECOZUS
_symmetry_space_group_name_H-M    'P1'
_symmetry_Int_Tables_number       1
loop_
_symmetry_equiv_pos_site_id
_symmetry_equiv_pos_as_xyz
1 x,y,z
_cell_length_a                   15.8572
_cell_length_b                   10.074413
_cell_length_c                   19.0142
_cell_angle_alpha                90.0
_cell_angle_beta                 101.9573
_cell_angle_gamma                90.0
loop_
_atom_site_label
_atom_site_type_symbol
_atom_site_fract_x
_atom_site_fract_y
_atom_site_fract_z
     1  C          0.02553000       0.00000000       0.24963000
     2  C          0.52553000       0.50000000       0.24963000
     3  C          0.97447000       0.00000000       0.75037000
     4  C          0.47447000       0.50000000       0.75037000
     5  H          0.97023000       0.00000000       0.21805000
     6  H          0.47023000       0.50000000       0.21805000
     7  H          0.02977000       0.00000000       0.78195000
     8  H          0.52977000       0.50000000       0.78195000
     9  C          0.08853000       0.16984000       0.14852000
    10  C          0.58853000       0.66984000       0.14852000
    11  C          0.91147000       0.16984000       0.85148000
    12  C          0.41147000       0.66984000       0.85148000
    13  C          0.91147000       0.83016000       0.85148000
    14  C          0.41147000       0.33016000       0.85148000
    15  C          0.08853000       0.83016000       0.14852000
    16  C          0.58853000       0.33016000       0.14852000
    17  H          0.03530000       0.13860000       0.11690000
    18  H          0.53530000       0.63860000       0.11690000
    19  H          0.96470000       0.13860000       0.88310000
    20  H          0.46470000       0.63860000       0.88310000
    21  H          0.96470000       0.86140000       0.88310000
    22  H          0.46470000       0.36140000       0.88310000
    23  H          0.03530000       0.86140000       0.11690000
    24  H          0.53530000       0.36140000       0.11690000
    25  H          0.13720000       0.15580000       0.12490000
    26  H          0.63720000       0.65580000       0.12490000
    27  H          0.86280000       0.15580000       0.87510000
    28  H          0.36280000       0.65580000       0.87510000
    29  H          0.86280000       0.84420000       0.87510000
    30  H          0.36280000       0.34420000       0.87510000
    31  H          0.13720000       0.84420000       0.12490000
    32  H          0.63720000       0.34420000       0.12490000
    33  H          0.08320000       0.26460000       0.15830000
    34  H          0.58320000       0.76460000       0.15830000
    35  H          0.91680000       0.26460000       0.84170000
    36  H          0.41680000       0.76460000       0.84170000
    37  H          0.91680000       0.73540000       0.84170000
    38  H          0.41680000       0.23540000       0.84170000
    39  H          0.08320000       0.73540000       0.15830000
    40  H          0.58320000       0.23540000       0.15830000
    41  C         -0.00222000       0.27364000       0.28672000
    42  C          0.49778000       0.77364000       0.28672000
    43  C          0.00222000       0.27364000       0.71328000
    44  C          0.50222000       0.77364000       0.71328000
    45  C          0.00222000       0.72636000       0.71328000
    46  C          0.50222000       0.22636000       0.71328000
    47  C         -0.00222000       0.72636000       0.28672000
    48  C          0.49778000       0.22636000       0.28672000
    49  H          0.94270000       0.25530000       0.25390000
    50  H          0.44270000       0.75530000       0.25390000
    51  H          0.05730000       0.25530000       0.74610000
    52  H          0.55730000       0.75530000       0.74610000
    53  H          0.05730000       0.74470000       0.74610000
    54  H          0.55730000       0.24470000       0.74610000
    55  H          0.94270000       0.74470000       0.25390000
    56  H          0.44270000       0.24470000       0.25390000
    57  H          0.02700000       0.34680000       0.26750000
    58  H          0.52700000       0.84680000       0.26750000
    59  H          0.97300000       0.34680000       0.73250000
    60  H          0.47300000       0.84680000       0.73250000
    61  H          0.97300000       0.65320000       0.73250000
    62  H          0.47300000       0.15320000       0.73250000
    63  H          0.02700000       0.65320000       0.26750000
    64  H          0.52700000       0.15320000       0.26750000
    65  H          0.98730000       0.29840000       0.33400000
    66  H          0.48730000       0.79840000       0.33400000
    67  H          0.01270000       0.29840000       0.66600000
    68  H          0.51270000       0.79840000       0.66600000
    69  H          0.01270000       0.70160000       0.66600000
    70  H          0.51270000       0.20160000       0.66600000
    71  H          0.98730000       0.70160000       0.33400000
    72  H          0.48730000       0.20160000       0.33400000
    73  C          0.94357000       0.00000000       0.37153000
    74  C          0.44357000       0.50000000       0.37153000
    75  C          0.05643000       0.00000000       0.62847000
    76  C          0.55643000       0.50000000       0.62847000
    77  H          0.89260000       0.00000000       0.33220000
    78  H          0.39260000       0.50000000       0.33220000
    79  H          0.10740000       0.00000000       0.66780000
    80  H          0.60740000       0.50000000       0.66780000
    81  B          0.10402000       0.09004000       0.22132000
    82  B          0.60402000       0.59004000       0.22132000
    83  B          0.89598000       0.09004000       0.77868000
    84  B          0.39598000       0.59004000       0.77868000
    85  B          0.89598000       0.90996000       0.77868000
    86  B          0.39598000       0.40996000       0.77868000
    87  B          0.10402000       0.90996000       0.22132000
    88  B          0.60402000       0.40996000       0.22132000
    89  B          0.05672000       0.14493000       0.29422000
    90  B          0.55672000       0.64493000       0.29422000
    91  B          0.94328000       0.14493000       0.70578000
    92  B          0.44328000       0.64493000       0.70578000
    93  B          0.94328000       0.85507000       0.70578000
    94  B          0.44328000       0.35507000       0.70578000
    95  B          0.05672000       0.85507000       0.29422000
    96  B          0.55672000       0.35507000       0.29422000
    97  B          0.02703000       0.00000000       0.33953000
    98  B          0.52703000       0.50000000       0.33953000
    99  B          0.97297000       0.00000000       0.66047000
   100  B          0.47297000       0.50000000       0.66047000
   101  B          0.12362000       0.08793000       0.37571190
   102  B          0.62362000       0.58793000       0.37571190
   103  B          0.87638000       0.08793000       0.62428810
   104  B          0.37638000       0.58793000       0.62428810
   105  B          0.87638000       0.91207000       0.62428810
   106  B          0.37638000       0.41207000       0.62428810
   107  B          0.12362000       0.91207000       0.37571190
   108  B          0.62362000       0.41207000       0.37571190
   109  B          0.17002000       0.14193000       0.30362000
   110  B          0.67002000       0.64193000       0.30362000
   111  B          0.82998000       0.14193000       0.69638000
   112  B          0.32998000       0.64193000       0.69638000
   113  B          0.82998000       0.85807000       0.69638000
   114  B          0.32998000       0.35807000       0.69638000
   115  B          0.17002000       0.85807000       0.30362000
   116  B          0.67002000       0.35807000       0.30362000
   117  B          0.19973000       0.00000000       0.25903000
   118  B          0.69973000       0.50000000       0.25903000
   119  B          0.80027000       0.00000000       0.74097000
   120  B          0.30027000       0.50000000       0.74097000
   121  B          0.21223000       0.00000000       0.35393000
   122  B          0.71223000       0.50000000       0.35393000
   123  B          0.78777000       0.00000000       0.64607000
   124  B          0.28777000       0.50000000       0.64607000
   125  Br         0.13453200       0.18850300       0.46509719
   126  Br         0.63453200       0.68850300       0.46509719
   127  Br         0.86546800       0.18850300       0.53490281
   128  Br         0.36546800       0.68850300       0.53490281
   129  Br         0.86546800       0.81149700       0.53490281
   130  Br         0.36546800       0.31149700       0.53490281
   131  Br         0.13453200       0.81149700       0.46509719
   132  Br         0.63453200       0.31149700       0.46509719
   133  Br         0.23748300       0.30627300       0.30951200
   134  Br         0.73748300       0.80627300       0.30951200
   135  Br         0.76251700       0.30627300       0.69048800
   136  Br         0.26251700       0.80627300       0.69048800
   137  Br         0.76251700       0.69372700       0.69048800
   138  Br         0.26251700       0.19372700       0.69048800
   139  Br         0.23748300       0.69372700       0.30951200
   140  Br         0.73748300       0.19372700       0.30951200
   141  Br         0.29771300       0.00000000       0.21142300
   142  Br         0.79771300       0.50000000       0.21142300
   143  Br         0.70228700       0.00000000       0.78857700
   144  Br         0.20228700       0.50000000       0.78857700
   145  Br         0.32858300       0.00000000       0.41451300
   146  Br         0.82858300       0.50000000       0.41451300
   147  Br         0.67141700       0.00000000       0.58548700
   148  Br         0.17141700       0.50000000       0.58548700
   149  H          0.94300000       0.07940000       0.40110000
   150  H          0.44300000       0.57940000       0.40110000
   151  H          0.05700000       0.07940000       0.59890000
   152  H          0.55700000       0.57940000       0.59890000
   153  H          0.05700000       0.92060000       0.59890000
   154  H          0.55700000       0.42060000       0.59890000
   155  H          0.94300000       0.92060000       0.40110000
   156  H          0.44300000       0.42060000       0.40110000
   157  O          0.32393000       0.00000000       0.57782000
   158  O          0.82393000       0.50000000       0.57782000
   159  O          0.67607000      -0.00000000       0.42218000
   160  O          0.17607000       0.50000000       0.42218000
   161  H          0.30530000       0.07740000       0.60020000
   162  H          0.80530000       0.57740000       0.60020000
   163  H          0.69470000       0.07740000       0.39980000
   164  H          0.19470000       0.57740000       0.39980000
   165  H          0.69470000       0.92260000       0.39980000
   166  H          0.19470000       0.42260000       0.39980000
   167  H          0.30530000       0.92260000       0.60020000
   168  H          0.80530000       0.42260000       0.60020000
   169  H          0.31540000       0.00000000       0.52540000
   170  H          0.81540000       0.50000000       0.52540000
   171  H          0.68460000       0.00000000       0.47460000
   172  H          0.18460000       0.50000000       0.47460000
   173  C          0.79544000       0.00000000       0.14714000
   174  C          0.29544000       0.50000000       0.14714000
   175  C          0.20456000       0.00000000       0.85286000
   176  C          0.70456000       0.50000000       0.85286000
   177  H          0.77290000       0.00000000       0.18970000
   178  H          0.27290000       0.50000000       0.18970000
   179  H          0.22710000       0.00000000       0.81030000
   180  H          0.72710000       0.50000000       0.81030000
   181  C          0.81093000       0.88486000       0.11793000
   182  C          0.31093000       0.38486000       0.11793000
   183  C          0.18907000       0.88486000       0.88207000
   184  C          0.68907000       0.38486000       0.88207000
   185  C          0.18907000       0.11514000       0.88207000
   186  C          0.68907000       0.61514000       0.88207000
   187  C          0.81093000       0.11514000       0.11793000
   188  C          0.31093000       0.61514000       0.11793000
   189  H          0.79790000       0.80370000       0.13880000
   190  H          0.29790000       0.30370000       0.13880000
   191  H          0.20210000       0.80370000       0.86120000
   192  H          0.70210000       0.30370000       0.86120000
   193  H          0.20210000       0.19630000       0.86120000
   194  H          0.70210000       0.69630000       0.86120000
   195  H          0.79790000       0.19630000       0.13880000
   196  H          0.29790000       0.69630000       0.13880000
   197  C          0.84554000       0.88306000       0.05764000
   198  C          0.34554000       0.38306000       0.05764000
   199  C          0.15446000       0.88306000       0.94236000
   200  C          0.65446000       0.38306000       0.94236000
   201  C          0.15446000       0.11694000       0.94236000
   202  C          0.65446000       0.61694000       0.94236000
   203  C          0.84554000       0.11694000       0.05764000
   204  C          0.34554000       0.61694000       0.05764000
   205  H          0.85750000       0.80100000       0.03700000
   206  H          0.35750000       0.30100000       0.03700000
   207  H          0.14250000       0.80100000       0.96300000
   208  H          0.64250000       0.30100000       0.96300000
   209  H          0.14250000       0.19900000       0.96300000
   210  H          0.64250000       0.69900000       0.96300000
   211  H          0.85750000       0.19900000       0.03700000
   212  H          0.35750000       0.69900000       0.03700000
   213  C          0.86267000       0.00000000       0.02775000
   214  C          0.36267000       0.50000000       0.02775000
   215  C          0.13733000       0.00000000       0.97225000
   216  C          0.63733000       0.50000000       0.97225000
   217  H          0.88640000       0.00000000       0.98580000
   218  H          0.38640000       0.50000000       0.98580000
   219  H          0.11360000      -0.00000000       0.01420000
   220  H          0.61360000       0.50000000       0.01420000
   221  C          0.08746000       0.50000000       0.00228000
   222  C          0.58746000       0.00000000       0.00228000
   223  C          0.91254000       0.50000000      -0.00228000
   224  C          0.41254000       0.00000000      -0.00228000
   225  H          0.14770000       0.50000000       0.00410000
   226  H          0.64770000       0.00000000       0.00410000
   227  H          0.85230000       0.50000000      -0.00410000
   228  H          0.35230000       0.00000000      -0.00410000
   229  C          0.05758000       0.50000000       0.06319000
   230  C          0.55758000       0.00000000       0.06319000
   231  C          0.94242000       0.50000000       0.93681000
   232  C          0.44242000       0.00000000       0.93681000
   233  H          0.09790000       0.50000000       0.10770000
   234  H          0.59790000       0.00000000       0.10770000
   235  H          0.90210000       0.50000000       0.89230000
   236  H          0.40210000       0.00000000       0.89230000
   237  C          0.02957000       0.50000000       0.93573000
   238  C          0.52957000       0.00000000       0.93573000
   239  C          0.97043000       0.50000000       0.06427000
   240  C          0.47043000       0.00000000       0.06427000
   241  H          0.04910000       0.50000000       0.89180000
   242  H          0.54910000       0.00000000       0.89180000
   243  H          0.95090000       0.50000000       0.10820000
   244  H          0.45090000       0.00000000       0.10820000
