data_EDEFAY
_symmetry_space_group_name_H-M    'P1'
_symmetry_Int_Tables_number       1
loop_
_symmetry_equiv_pos_site_id
_symmetry_equiv_pos_as_xyz
1 x,y,z
_cell_length_a                   5.361774
_cell_length_b                   8.071415
_cell_length_c                   25.1884616
_cell_angle_alpha                90.0
_cell_angle_beta                 90.0
_cell_angle_gamma                90.0
loop_
_atom_site_label
_atom_site_type_symbol
_atom_site_fract_x
_atom_site_fract_y
_atom_site_fract_z
     1  O         -0.00834000       0.07232000       0.28964600
     2  O          0.50834000       0.92768000       0.78964600
     3  O          0.00834000       0.57232000       0.21035400
     4  O          0.49166000       0.42768000       0.71035400
     5  N          0.19414000       0.15223000       0.31341700
     6  N          0.30586000       0.84777000       0.81341700
     7  N          0.80586000       0.65223000       0.18658300
     8  N          0.69414000       0.34777000       0.68658300
     9  N          0.90796000       0.93447000       0.41926700
    10  N          0.59204000       0.06553000       0.91926700
    11  N          0.09204000       0.43447000       0.08073300
    12  N          0.40796000       0.56553000       0.58073300
    13  H          0.91856900       0.00548200       0.44477600
    14  H          0.58143100      -0.00548200       0.94477600
    15  H          0.08143100       0.50548200       0.05522400
    16  H          0.41856900       0.49451800       0.55522400
    17  H          0.75666900       0.89874200       0.41733600
    18  H          0.74333100       0.10125800       0.91733600
    19  H          0.24333100       0.39874200       0.08266400
    20  H          0.25666900       0.60125800       0.58266400
    21  N          0.33804000       0.17273000       0.40118800
    22  N          0.16196000       0.82727000       0.90118800
    23  N          0.66196000       0.67273000       0.09881200
    24  N          0.83804000       0.32727000       0.59881200
    25  H          0.46906500       0.21596000       0.38658200
    26  H          0.03093500       0.78404000       0.88658200
    27  H          0.53093500       0.71596000       0.11341800
    28  H          0.96906500       0.28404000       0.61341800
    29  H          0.26236500       0.24831600       0.41953300
    30  H          0.23763500       0.75168400       0.91953300
    31  H          0.73763500       0.74831600       0.08046700
    32  H          0.76236500       0.25168400       0.58046700
    33  N          0.85626000      -0.01713000       0.32735700
    34  N          0.64374000       0.01713000       0.82735700
    35  N          0.14374000       0.48287000       0.17264300
    36  N          0.35626000       0.51713000       0.67264300
    37  C          0.18234000       0.11392000       0.36345800
    38  C          0.31766000       0.88608000       0.86345800
    39  C          0.81766000       0.61392000       0.13654200
    40  C          0.68234000       0.38608000       0.63654200
    41  C          0.97066000       0.00713000       0.37226800
    42  C          0.52934000      -0.00713000       0.87226800
    43  C          0.02934000       0.50713000       0.12773200
    44  C          0.47066000       0.49287000       0.62773200
    45  O          0.39003000       0.60173000       0.45046700
    46  O          0.10997000       0.39827000       0.95046700
    47  O          0.60997000       0.10173000       0.04953300
    48  O          0.89003000       0.89827000       0.54953300
    49  O          0.43314000       0.75762000       0.38142800
    50  O          0.06686000       0.24238000       0.88142800
    51  O          0.56686000       0.25762000       0.11857200
    52  O          0.93314000       0.74238000       0.61857200
    53  O          0.92934000       0.53502000       0.49345600
    54  O          0.57066000       0.46498000       0.99345600
    55  O          0.07066000       0.03502000       0.00654400
    56  O          0.42934000       0.96498000       0.50654400
    57  O          0.77264000       0.30123000       0.46817700
    58  O          0.72736000       0.69877000       0.96817700
    59  O          0.22736000       0.80123000       0.03182300
    60  O          0.27264000       0.19877000       0.53182300
    61  N          0.76954000       0.42052000       0.36827700
    62  N          0.73046000       0.57948000       0.86827700
    63  N          0.23046000       0.92052000       0.13172300
    64  N          0.26954000       0.07948000       0.63172300
    65  N          0.85643000       0.48612000       0.32278600
    66  N          0.64357000       0.51388000       0.82278600
    67  N          0.14357000      -0.01388000       0.17721400
    68  N          0.35643000       0.01388000       0.67721400
    69  H          0.78789200       0.46916000       0.29239100
    70  H          0.71210800       0.53084000       0.79239100
    71  H          0.21210800       0.96916000       0.20760900
    72  H          0.28789200       0.03084000       0.70760900
    73  N          0.87374000       0.43402000       0.45943700
    74  N          0.62626000       0.56598000       0.95943700
    75  N          0.12626000       0.93402000       0.04056300
    76  N          0.37374000       0.06598000       0.54056300
    77  N          0.32424000       0.65092000       0.40689700
    78  N          0.17576000       0.34908000       0.90689700
    79  N          0.67576000       0.15092000       0.09310300
    80  N          0.82424000       0.84908000       0.59310300
    81  C          0.11054000       0.57692000       0.38285800
    82  C          0.38946000       0.42308000       0.88285800
    83  C          0.88946000       0.07692000       0.11714200
    84  C          0.61054000       0.92308000       0.61714200
    85  C          0.92524000       0.47542000       0.40470700
    86  C          0.57476000       0.52458000       0.90470700
    87  C          0.07476000       0.97542000       0.09529300
    88  C          0.42524000       0.02458000       0.59529300
    89  C          0.05824000       0.57963000       0.32924800
    90  C          0.44176000       0.42037000       0.82924800
    91  C          0.94176000       0.07963000       0.17075200
    92  C          0.55824000       0.92037000       0.67075200
    93  H          0.14625900       0.63555000       0.30295900
    94  H          0.35374100       0.36445000       0.80295900
    95  H          0.85374100       0.13555000       0.19704100
    96  H          0.64625900       0.86445000       0.69704100
    97  O          0.54624000       0.34413000       0.24781700
    98  O          0.95376000       0.65587000       0.74781700
    99  O          0.45376000       0.84413000       0.25218300
   100  O          0.04624000       0.15587000       0.75218300
   101  H          0.45370000       0.37250000       0.22091200
   102  H          0.04630000       0.62750000       0.72091200
   103  H          0.54630000       0.87250000       0.27908800
   104  H          0.95370000       0.12750000       0.77908800
   105  H          0.43970000       0.28540000       0.26611400
   106  H          0.06030000       0.71460000       0.76611400
   107  H          0.56030000       0.78540000       0.23388600
   108  H          0.93970000       0.21460000       0.73388600
