data_EFAPUY
_symmetry_space_group_name_H-M    'P1'
_symmetry_Int_Tables_number       1
loop_
_symmetry_equiv_pos_site_id
_symmetry_equiv_pos_as_xyz
1 x,y,z
_cell_length_a                   5.00942
_cell_length_b                   8.54594
_cell_length_c                   10.87365
_cell_angle_alpha                82.33701
_cell_angle_beta                 88.95201
_cell_angle_gamma                86.90401
loop_
_atom_site_label
_atom_site_type_symbol
_atom_site_fract_x
_atom_site_fract_y
_atom_site_fract_z
     1  Cl         0.42007600       0.86198300       0.41239300
     2  Cl         0.57992400       0.13801700       0.58760700
     3  O          0.94601170       0.35939100       0.35994800
     4  O          0.05398830       0.64060900       0.64005200
     5  N          0.59391180       0.43360110       0.22863900
     6  N          0.40608820       0.56639890       0.77136100
     7  C          0.70472000       0.59435130       0.38427100
     8  C          0.29528000       0.40564870       0.61572900
     9  H          0.81460000       0.61300000       0.45050000
    10  H          0.18540000       0.38700000       0.54950000
    11  N          0.24752000       0.52018120       0.09782100
    12  N          0.75248000       0.47981880       0.90217900
    13  C          0.39602000       0.54346130       0.19395100
    14  C          0.60398000       0.45653870       0.80604900
    15  N          0.33618180       0.67556110       0.24763900
    16  N          0.66381820       0.32443890       0.75236100
    17  C          0.49492000       0.69401130       0.34172100
    18  C          0.50508000       0.30598870       0.65827900
    19  C          0.74342000       0.46134130       0.32110100
    20  C          0.25658000       0.53865870       0.67889900
    21  C         -0.02007000       0.21688140       0.30162120
    22  C          0.02007000       0.78311860       0.69837880
    23  H          0.13720000       0.15400000       0.33590000
    24  H          0.86280000       0.84600000       0.66410000
    25  H          0.00460000       0.24510000       0.21190000
    26  H         -0.00460000       0.75490000       0.78810000
    27  H          0.82080000       0.15500000       0.31750000
    28  H          0.17920000       0.84500000       0.68250000
    29  H          0.28630000       0.43920000       0.06271500
    30  H          0.71370000       0.56080000       0.93728500
    31  H          0.12330000       0.58820000       0.07581500
    32  H          0.87670000       0.41180000       0.92418500
    33  O          0.04847160       0.09366100       0.82320200
    34  O          0.95152840       0.90633900       0.17679800
    35  O          0.18536160       0.23812900       0.96463200
    36  O          0.81463840       0.76187100       0.03536800
    37  C          0.41702000      -0.01172130       0.94418900
    38  C          0.58298000       0.01172130       0.05581100
    39  H          0.53700000       0.98210000       0.87150000
    40  H          0.46300000       0.01790000       0.12850000
    41  H          0.32870000       0.88670000       0.96190000
    42  H          0.67130000       0.11330000       0.03810000
    43  C          0.20702000       0.12009130       0.91294900
    44  C          0.79298000       0.87990870       0.08705100
    45  H          0.94070000       0.16620000       0.80398400
    46  H          0.05930000       0.83380000       0.19601600
