data_EFICOL
_symmetry_space_group_name_H-M    'P1'
_symmetry_Int_Tables_number       1
loop_
_symmetry_equiv_pos_site_id
_symmetry_equiv_pos_as_xyz
1 x,y,z
_cell_length_a                   8.888613
_cell_length_b                   8.888613
_cell_length_c                   6.419213
_cell_angle_alpha                90.0
_cell_angle_beta                 90.0
_cell_angle_gamma                90.0
loop_
_atom_site_label
_atom_site_type_symbol
_atom_site_fract_x
_atom_site_fract_y
_atom_site_fract_z
     1  P          0.25000000       0.25000000       0.41586000
     2  P          0.75000000       0.75000000       0.58414000
     3  F          0.25000000       0.25000000       0.66302000
     4  F          0.75000000       0.75000000       0.33698000
     5  F          0.25000000       0.25000000       0.16302000
     6  F          0.75000000       0.75000000       0.83698000
     7  F          0.12726000       0.37286000       0.41061100
     8  F          0.12714000       0.12726000       0.41061100
     9  F          0.62726000       0.62714000       0.58938900
    10  F          0.37274000       0.12714000       0.41061100
    11  F          0.87286000       0.62726000       0.58938900
    12  F          0.37286000       0.37274000       0.41061100
    13  F          0.87274000       0.87286000       0.58938900
    14  F          0.62714000       0.87274000       0.58938900
    15  N          0.75000000       0.25000000       0.00000000
    16  N          0.25000000       0.75000000       0.00000000
    17  C          0.61902000       0.25000000       0.84496000
    18  C          0.25000000       0.61902000       0.84496000
    19  C          0.11902000       0.75000000       0.15504000
    20  C          0.88098000       0.25000000       0.84496000
    21  C          0.75000000       0.11902000       0.15504000
    22  C          0.25000000       0.88098000       0.84496000
    23  C          0.38098000       0.75000000       0.15504000
    24  C          0.75000000       0.38098000       0.15504000
