data_EFIPEP
_symmetry_space_group_name_H-M    'P1'
_symmetry_Int_Tables_number       1
loop_
_symmetry_equiv_pos_site_id
_symmetry_equiv_pos_as_xyz
1 x,y,z
_cell_length_a                   7.228314
_cell_length_b                   13.1153
_cell_length_c                   13.3203
_cell_angle_alpha                77.473
_cell_angle_beta                 74.483
_cell_angle_gamma                86.723
loop_
_atom_site_label
_atom_site_type_symbol
_atom_site_fract_x
_atom_site_fract_y
_atom_site_fract_z
     1  N          0.03545170       0.12193900       0.59212900
     2  N          0.96454830       0.87806100       0.40787100
     3  H          0.98330000       0.18070000       0.58320000
     4  H          0.01670000       0.81930000       0.41680000
     5  N          0.82304170       0.20300800       0.74788900
     6  N          0.17695830       0.79699200       0.25211100
     7  N          0.74978180       0.40207900       0.68238900
     8  N          0.25021820       0.59792100       0.31761100
     9  H          0.80250000       0.36270000       0.63870000
    10  H          0.19750000       0.63730000       0.36130000
    11  N          0.64851190       0.04886900       0.06618900
    12  N          0.35148810       0.95113100       0.93381100
    13  H          0.57350000       0.08320000       0.11050000
    14  H          0.42650000       0.91680000       0.88950000
    15  N          0.69976180       0.94769100       0.09936900
    16  N          0.30023820       0.05230900       0.90063100
    17  C          0.15592000       0.09754120       0.50500110
    18  C          0.84408000       0.90245880       0.49499890
    19  H          0.17420000       0.14440000       0.43790000
    20  H          0.82580000       0.85560000       0.56210000
    21  C          0.25322000       0.00396130       0.51332130
    22  C          0.74678000      -0.00396130       0.48667870
    23  H          0.33930000       0.98580000       0.45220000
    24  H          0.66070000       0.01420000       0.54780000
    25  C          0.22333000       0.93691870       0.61225140
    26  C          0.77667000       0.06308130       0.38774860
    27  H          0.28960000       0.87220000       0.61940000
    28  H          0.71040000       0.12780000       0.38060000
    29  C          0.09612000       0.96421890       0.70107120
    30  C          0.90388000       0.03578110       0.29892880
    31  H          0.07430000       0.91790000       0.76870000
    32  H          0.92570000       0.08210000       0.23130000
    33  C          0.00182190       0.05948100       0.69030100
    34  C         -0.00182190       0.94051900       0.30969900
    35  C          0.87328190       0.10323100       0.77792100
    36  C          0.12671810       0.89676900       0.22207900
    37  C          0.82062000       0.04576100       0.88235100
    38  C          0.17938000       0.95423900       0.11764900
    39  H          0.85830000       0.97490000       0.89970000
    40  H          0.14170000       0.02510000       0.10030000
    41  C          0.70951190       0.09628100       0.96137100
    42  C          0.29048810       0.90371900       0.03862900
    43  C          0.65982000       0.20167100       0.93106100
    44  C          0.34018000       0.79832900       0.06893900
    45  H          0.58640000       0.23830000       0.98250000
    46  H          0.41360000       0.76170000       0.01750000
    47  C          0.72025190       0.25063100       0.82455100
    48  C          0.27974810       0.74936900       0.17544900
    49  C          0.68375190       0.36285100       0.78800100
    50  C          0.31624810       0.63714900       0.21199900
    51  C          0.59612000       0.43114110       0.85288110
    52  C          0.40388000       0.56885890       0.14711890
    53  H          0.54740000       0.40600000       0.92740000
    54  H          0.45260000       0.59400000       0.07260000
    55  C          0.58002000       0.53634110       0.80832130
    56  C          0.41998000       0.46365890       0.19167870
    57  H          0.51660000       0.58280000       0.85220000
    58  H          0.48340000       0.41720000       0.14780000
    59  C          0.65562000       0.57371110       0.69991130
    60  C          0.34438000       0.42628890       0.30008870
    61  H          0.64940000       0.64580000       0.66900000
    62  H          0.35060000       0.35420000       0.33100000
    63  C          0.74022000       0.50359110       0.63797120
    64  C          0.25978000       0.49640890       0.36202880
    65  H          0.79220000       0.52730000       0.56350000
    66  H          0.20780000       0.47270000       0.43650000
    67  C          0.62852000       0.90859900       0.19916110
    68  C          0.37148000       0.09140100       0.80083890
    69  H          0.54630000       0.94990000       0.24300000
    70  H          0.45370000       0.05010000       0.75700000
    71  C          0.67302000       0.80113900       0.24533110
    72  C          0.32698000       0.19886100       0.75466890
    73  C          0.80282000       0.73965890       0.18553120
    74  C          0.19718000       0.26034110       0.81446880
    75  H          0.86690000       0.76830000       0.11350000
    76  H          0.13310000       0.23170000       0.88650000
    77  C          0.83782000       0.63736880       0.23052140
    78  C          0.16218000       0.36263120       0.76947860
    79  H          0.92520000       0.59600000       0.18900000
    80  H          0.07480000       0.40400000       0.81100000
    81  C          0.74603000       0.59454880       0.33662150
    82  C          0.25397000       0.40545120       0.66337850
    83  H          0.77040000       0.52440000       0.36750000
    84  H          0.22960000       0.47560000       0.63250000
    85  C          0.61823000       0.65545870       0.39682130
    86  C          0.38177000       0.34454130       0.60317870
    87  H          0.55560000       0.62680000       0.46910000
    88  H          0.44440000       0.37320000       0.53090000
    89  C          0.58152000       0.75827880       0.35166120
    90  C          0.41848000       0.24172120       0.64833880
    91  H          0.49380000       0.79930000       0.39330000
    92  H          0.50620000       0.20070000       0.60670000
    93  Cl         0.89534600       0.32269300       0.47629300
    94  Cl         0.10465400       0.67730700       0.52370700
    95  Cl         0.40309700       0.16747300       0.23994300
    96  Cl         0.59690300       0.83252700       0.76005700
    97  O          0.19242000       0.62500900       0.97312100
    98  O          0.80758000       0.37499100       0.02687900
    99  S          0.07880600       0.69823700       0.90897300
   100  S          0.92119400       0.30176300       0.09102700
   101  C          0.15004000       0.67402830       0.77763150
   102  C          0.84996000       0.32597170       0.22236850
   103  H          0.28170000       0.69890000       0.74310000
   104  H          0.71830000       0.30110000       0.25690000
   105  H          0.06360000       0.71100000       0.73640000
   106  H          0.93640000       0.28900000       0.26360000
   107  H          0.14390000       0.59880000       0.78110000
   108  H          0.85610000       0.40120000       0.21890000
   109  C          0.84263000       0.64471840       0.94537170
   110  C          0.15737000       0.35528160       0.05462830
   111  H          0.77720000       0.65120000       0.01830000
   112  H          0.22280000       0.34880000       0.98170000
   113  H          0.85070000       0.57080000       0.94120000
   114  H          0.14930000       0.42920000       0.05880000
   115  H          0.77020000       0.68290000       0.89640000
   116  H          0.22980000       0.31710000       0.10360000
