data_EFOJAM
_symmetry_space_group_name_H-M    'P1'
_symmetry_Int_Tables_number       1
loop_
_symmetry_equiv_pos_site_id
_symmetry_equiv_pos_as_xyz
1 x,y,z
_cell_length_a                   8.52805
_cell_length_b                   8.91425
_cell_length_c                   9.70476
_cell_angle_alpha                73.9133
_cell_angle_beta                 88.9583
_cell_angle_gamma                79.1213
loop_
_atom_site_label
_atom_site_type_symbol
_atom_site_fract_x
_atom_site_fract_y
_atom_site_fract_z
     1  O          0.15135900       0.10784900       0.87602200
     2  O          0.84864100       0.89215100       0.12397800
     3  H          0.11920000       0.03350000       0.85900000
     4  H          0.88080000       0.96650000       0.14100000
     5  N          0.22115900       0.44830100       0.97492100
     6  N          0.77884100       0.55169900       0.02507900
     7  H          0.25090000       0.44940000       0.06310000
     8  H          0.74910000       0.55060000       0.93690000
     9  H          0.23110000       0.54200000       0.91340000
    10  H          0.76890000       0.45800000       0.08660000
    11  C          0.33262110       0.31666120       0.93326900
    12  C          0.66737890       0.68333880       0.06673100
    13  H          0.30230000       0.31670000       0.83740000
    14  H          0.69770000       0.68330000       0.16260000
    15  H          0.44040000       0.33740000       0.93080000
    16  H          0.55960000       0.66260000       0.06920000
    17  C          0.33104110       0.15593110       0.03423100
    18  C          0.66895890       0.84406890       0.96576900
    19  C          0.42308120       0.10435120       0.16209110
    20  C          0.57691880       0.89564880       0.83790890
    21  H          0.48420000       0.17110000       0.18440000
    22  H          0.51580000       0.82890000       0.81560000
    23  C          0.42474120       0.95524870       0.25625110
    24  C          0.57525880       0.04475130       0.74374890
    25  H          0.48560000       0.92250000       0.34160000
    26  H          0.51440000       0.07750000       0.65840000
    27  C          0.33458120       0.85536880       0.22175110
    28  C          0.66541880       0.14463120       0.77824890
    29  H          0.33540000       0.75520000       0.28450000
    30  H          0.66460000       0.24480000       0.71550000
    31  C          0.24336120       0.90333880       0.09482110
    32  C          0.75663880       0.09666120       0.90517890
    33  H          0.18410000       0.83530000       0.07230000
    34  H          0.81590000       0.16470000       0.92770000
    35  C          0.24092110       0.05416120       0.00104100
    36  C          0.75907890       0.94583880      -0.00104100
    37  C          0.05045110       0.43308110       0.97523900
    38  C          0.94954890       0.56691890       0.02476100
    39  H          0.03830000       0.33120000       0.03910000
    40  H          0.96170000       0.66880000       0.96090000
    41  H          0.01490000       0.43800000       0.87940000
    42  H          0.98510000       0.56200000       0.12060000
    43  O          0.49047100       0.34876100       0.42930800
    44  O          0.50952900       0.65123900       0.57069200
    45  O          0.30921100       0.46184100       0.24934800
    46  O          0.69078900       0.53815900       0.75065200
    47  C          0.34463120       0.41389120       0.37767110
    48  C          0.65536880       0.58610880       0.62232890
    49  C          0.22758120       0.42596130       0.49310100
    50  C          0.77241880       0.57403870       0.50689900
    51  H          0.26050000       0.49160000       0.54770000
    52  H          0.73950000       0.50840000       0.45230000
    53  H          0.23160000       0.32060000       0.55800000
    54  H          0.76840000       0.67940000       0.44200000
    55  C          0.05578120       0.49527120       0.43858110
    56  C          0.94421880       0.50472880       0.56141890
    57  H          0.02100000       0.42950000       0.38510000
    58  H          0.97900000       0.57050000       0.61490000
    59  H          0.05030000       0.60100000       0.37390000
    60  H          0.94970000       0.39900000       0.62610000
    61  H          0.56830000       0.34230000       0.36230000
    62  H          0.43170000       0.65770000       0.63770000
    63  O          0.28830100       0.67515900       0.74568800
    64  O          0.71169900       0.32484100       0.25431200
    65  O          0.09992900       0.84427900       0.81351800
    66  O          0.90007100       0.15572100       0.18648200
    67  C          0.19695110       0.81188120       0.72476100
    68  C          0.80304890       0.18811880       0.27523900
    69  C          0.21425130       0.93709150       0.58617120
    70  C          0.78574870       0.06290850       0.41382880
    71  H          0.26190000       0.88430000       0.51630000
    72  H          0.73810000       0.11570000       0.48370000
    73  H          0.28680000       0.00190000       0.60400000
    74  H          0.71320000      -0.00190000       0.39600000
    75  C          0.05742130       0.04506120       0.52268110
    76  C          0.94257870       0.95493880       0.47731890
    77  H          0.00760000       0.09580000       0.59320000
    78  H         -0.00760000       0.90420000       0.40680000
    79  H          0.07900000       0.12790000       0.44000000
    80  H          0.92100000       0.87210000       0.56000000
