data_EFOLIX
_symmetry_space_group_name_H-M    'P1'
_symmetry_Int_Tables_number       1
loop_
_symmetry_equiv_pos_site_id
_symmetry_equiv_pos_as_xyz
1 x,y,z
_cell_length_a                   13.46154
_cell_length_b                   6.766901
_cell_length_c                   6.80272
_cell_angle_alpha                90.0
_cell_angle_beta                 90.0
_cell_angle_gamma                90.0
loop_
_atom_site_label
_atom_site_type_symbol
_atom_site_fract_x
_atom_site_fract_y
_atom_site_fract_z
     1  N          0.06266120       0.62732000       0.65542000
     2  N          0.93733880       0.37268000       0.65542000
     3  N          0.43733880       0.62732000       0.65542000
     4  N          0.56266120       0.37268000       0.65542000
     5  N          0.06339130       0.37532000       0.40422000
     6  N          0.93660870       0.62468000       0.40422000
     7  N          0.43660870       0.37532000       0.40422000
     8  N          0.56339130       0.62468000       0.40422000
     9  H          0.10660500       0.29110000       0.32400900
    10  H          0.89339500       0.70890000       0.32400900
    11  H          0.39339500       0.29110000       0.32400900
    12  H          0.60660500       0.70890000       0.32400900
    13  C          0.00000000       0.50000000       0.77854000
    14  C          0.50000000       0.50000000       0.77854000
    15  H          0.95831800       0.58118900       0.86220600
    16  H          0.04168200       0.41881100       0.86220600
    17  H          0.54168200       0.58118900       0.86220600
    18  H          0.45831800       0.41881100       0.86220600
    19  C          0.12646150       0.50863000       0.53493000
    20  C          0.87353850       0.49137000       0.53493000
    21  C          0.37353850       0.50863000       0.53493000
    22  C          0.62646150       0.49137000       0.53493000
    23  H          0.16938200       0.42862200       0.61733500
    24  H          0.83061800       0.57137800       0.61733500
    25  H          0.33061800       0.42862200       0.61733500
    26  H          0.66938200       0.57137800       0.61733500
    27  H          0.16796600       0.59303800       0.45410900
    28  H          0.83203400       0.40696200       0.45410900
    29  H          0.33203400       0.59303800       0.45410900
    30  H          0.66796600       0.40696200       0.45410900
    31  C          0.00000000       0.50000000       0.27395000
    32  C          0.50000000       0.50000000       0.27395000
    33  H          0.04113800       0.58273100       0.19065800
    34  H          0.95886200       0.41726900       0.19065800
    35  H          0.45886200       0.58273100       0.19065800
    36  H          0.54113800       0.41726900       0.19065800
    37  C          0.00223130       0.75323000       0.53553000
    38  C         -0.00223130       0.24677000       0.53553000
    39  C          0.49776870       0.75323000       0.53553000
    40  C          0.50223130       0.24677000       0.53553000
    41  H          0.04406200       0.83748000       0.45512500
    42  H          0.95593800       0.16252000       0.45512500
    43  H          0.45593800       0.83748000       0.45512500
    44  H          0.54406200       0.16252000       0.45512500
    45  H          0.96115600       0.83682100       0.61800900
    46  H          0.03884400       0.16317900       0.61800900
    47  H          0.53884400       0.83682100       0.61800900
    48  H          0.46115600       0.16317900       0.61800900
    49  N          0.25000000       0.92454000       0.95425000
    50  N          0.75000000       0.07546000       0.95425000
    51  H          0.19930000      -0.01550000       0.02750000
    52  H          0.80070000       0.01550000       0.02750000
    53  H          0.30070000      -0.01550000       0.02750000
    54  H          0.69930000       0.01550000       0.02750000
    55  H          0.25000000       0.94660000       0.83130000
    56  H          0.75000000       0.05340000       0.83130000
    57  H          0.25000000       0.81780000       0.97930000
    58  H          0.75000000       0.18220000       0.97930000
    59  Br         0.25000000       0.43531400       0.05357600
    60  Br         0.75000000       0.56468600       0.05357600
    61  Br         0.00000000       0.00000000       0.05672400
    62  Br         0.50000000       0.00000000       0.05672400
    63  Br         0.25000000       0.02224400       0.46678600
    64  Br         0.75000000       0.97775600       0.46678600
