data_EFUDOA
_symmetry_space_group_name_H-M    'P1'
_symmetry_Int_Tables_number       1
loop_
_symmetry_equiv_pos_site_id
_symmetry_equiv_pos_as_xyz
1 x,y,z
_cell_length_a                   13.0694
_cell_length_b                   4.436312
_cell_length_c                   28.7188
_cell_angle_alpha                90.0
_cell_angle_beta                 101.6308
_cell_angle_gamma                90.0
loop_
_atom_site_label
_atom_site_type_symbol
_atom_site_fract_x
_atom_site_fract_y
_atom_site_fract_z
     1  N          0.90439870       0.95894000       0.04042600
     2  N          0.09560130       0.45894000       0.45957400
     3  N          0.09560130       0.04106000       0.95957400
     4  N          0.90439870       0.54106000       0.54042600
     5  C          0.95175860       0.92344000       0.00238700
     6  C          0.04824140       0.42344000       0.49761300
     7  C          0.04824140       0.07656000      -0.00238700
     8  C          0.95175860       0.57656000       0.50238700
     9  N          0.89887870       0.73394000       0.97050400
    10  N          0.10112130       0.23394000       0.52949600
    11  N          0.10112130       0.26606000       0.02949600
    12  N          0.89887870       0.76606000       0.47050400
    13  C          0.81349840       0.64575000       0.98864200
    14  C          0.18650160       0.14575000       0.51135800
    15  C          0.18650160       0.35425000       0.01135800
    16  C          0.81349840       0.85425000       0.48864200
    17  H          0.76100000       0.50970000       0.97360000
    18  H          0.23900000       0.00970000       0.52640000
    19  H          0.23900000       0.49030000       0.02640000
    20  H          0.76100000      -0.00970000       0.47360000
    21  C          0.81575850       0.78255000       0.03124700
    22  C          0.18424150       0.28255000       0.46875300
    23  C          0.18424150       0.21745000       0.96875300
    24  C          0.81575850       0.71745000       0.53124700
    25  H          0.76580000       0.76060000       0.05090000
    26  H          0.23420000       0.26060000       0.44910000
    27  H          0.23420000       0.23940000       0.94910000
    28  H          0.76580000       0.73940000       0.55090000
    29  N          0.14586140       0.73384000       0.20125600
    30  N          0.85413860       0.23384000       0.29874400
    31  N          0.85413860       0.26616000       0.79874400
    32  N          0.14586140       0.76616000       0.70125600
    33  C          0.06980170       0.92185000       0.20765700
    34  C          0.93019830       0.42185000       0.29234300
    35  C          0.93019830       0.07815000       0.79234300
    36  C          0.06980170       0.57815000       0.70765700
    37  H          0.06390000      -0.03130000       0.23930000
    38  H          0.93610000       0.46870000       0.26070000
    39  H          0.93610000       0.03130000       0.76070000
    40  H          0.06390000       0.53130000       0.73930000
    41  C         -0.00095170       0.05195000       0.17050700
    42  C          0.00095170       0.55195000       0.32949300
    43  C          0.00095170       0.94805000       0.82949300
    44  C         -0.00095170       0.44805000       0.67050700
    45  H          0.94570000       0.18190000       0.17680000
    46  H          0.05430000       0.68190000       0.32320000
    47  H          0.05430000       0.81810000       0.82320000
    48  H          0.94570000       0.31810000       0.67680000
    49  C          0.00726150      -0.01066000       0.12368700
    50  C         -0.00726150       0.48934000       0.37631300
    51  C         -0.00726150       0.01066000       0.87631300
    52  C          0.00726150       0.51066000       0.62368700
    53  C          0.08669150       0.79405000       0.11693700
    54  C          0.91330850       0.29405000       0.38306300
    55  C          0.91330850       0.20595000       0.88306300
    56  C          0.08669150       0.70595000       0.61693700
    57  H          0.09550000       0.74630000       0.08570000
    58  H          0.90450000       0.24630000       0.41430000
    59  H          0.90450000       0.25370000       0.91430000
    60  H          0.09550000       0.75370000       0.58570000
    61  C          0.15277160       0.66995000       0.15622800
    62  C          0.84722840       0.16995000       0.34377200
    63  C          0.84722840       0.33005000       0.84377200
    64  C          0.15277160       0.83005000       0.65622800
    65  H          0.20530000       0.53340000       0.15100000
    66  H          0.79470000       0.03340000       0.34900000
    67  H          0.79470000       0.46660000       0.84900000
    68  H          0.20530000       0.96660000       0.65100000
    69  C          0.93459850       0.14375000       0.08305700
    70  C          0.06540150       0.64375000       0.41694300
    71  C          0.06540150       0.85625000       0.91694300
    72  C          0.93459850       0.35625000       0.58305700
    73  H          0.87060000       0.20570000       0.09400000
    74  H          0.12940000       0.70570000       0.40600000
    75  H          0.12940000       0.79430000       0.90600000
    76  H          0.87060000       0.29430000       0.59400000
    77  H          0.96900000       0.32890000       0.07460000
    78  H          0.03100000       0.82890000       0.42540000
    79  H          0.03100000       0.67110000       0.92540000
    80  H          0.96900000       0.17110000       0.57460000
    81  C          0.38208150       0.30725000       0.33961700
    82  C          0.61791850       0.80725000       0.16038300
    83  C          0.61791850       0.69275000       0.66038300
    84  C          0.38208150       0.19275000       0.83961700
    85  I          0.28308090       0.48878300       0.27850440
    86  I          0.71691910      -0.01121700       0.22149560
    87  I          0.71691910       0.51121700       0.72149560
    88  I          0.28308090       0.01121700       0.77850440
    89  C          0.48989150       0.36374000       0.35246700
    90  C          0.51010850       0.86374000       0.14753300
    91  C          0.51010850       0.63626000       0.64753300
    92  C          0.48989150       0.13626000       0.85246700
    93  I          0.57180090       0.61054300       0.30968650
    94  I          0.42819910       0.11054300       0.19031350
    95  I          0.42819910       0.38945700       0.69031350
    96  I          0.57180090       0.88945700       0.80968650
    97  C          0.54752150       0.23715000       0.39375700
    98  C          0.45247850       0.73715000       0.10624300
    99  C          0.45247850       0.76285000       0.60624300
   100  C          0.54752150       0.26285000       0.89375700
   101  F          0.65089100       0.28744000       0.40710500
   102  F          0.34910900       0.78744000       0.09289500
   103  F          0.34910900       0.71256000       0.59289500
   104  F          0.65089100       0.21256000       0.90710500
   105  C          0.50161170       0.04825000       0.42202800
   106  C          0.49838830       0.54825000       0.07797200
   107  C          0.49838830       0.95175000       0.57797200
   108  C          0.50161170       0.45175000       0.92202800
   109  F          0.55856110       0.91776000       0.46091500
   110  F          0.44143890       0.41776000       0.03908500
   111  F          0.44143890       0.08224000       0.53908500
   112  F          0.55856110       0.58224000       0.96091500
   113  C          0.39550170      -0.01245000       0.40919800
   114  C          0.60449830       0.48755000       0.09080200
   115  C          0.60449830       0.01245000       0.59080200
   116  C          0.39550170       0.51245000       0.90919800
   117  F          0.35044110       0.79847000       0.43575500
   118  F          0.64955890       0.29847000       0.06424500
   119  F          0.64955890       0.20153000       0.56424500
   120  F          0.35044110       0.70153000       0.93575500
   121  C          0.33702150       0.12125000       0.36881700
   122  C          0.66297850       0.62125000       0.13118300
   123  C          0.66297850       0.87875000       0.63118300
   124  C          0.33702150       0.37875000       0.86881700
   125  F          0.23350100       0.06283000       0.35891500
   126  F          0.76649900       0.56283000       0.14108500
   127  F          0.76649900       0.93717000       0.64108500
   128  F          0.23350100       0.43717000       0.85891500
