data_EFUDUG
_symmetry_space_group_name_H-M    'P1'
_symmetry_Int_Tables_number       1
loop_
_symmetry_equiv_pos_site_id
_symmetry_equiv_pos_as_xyz
1 x,y,z
_cell_length_a                   5.12655
_cell_length_b                   9.84661
_cell_length_c                   12.577513
_cell_angle_alpha                76.9723
_cell_angle_beta                 86.9632
_cell_angle_gamma                75.7422
loop_
_atom_site_label
_atom_site_type_symbol
_atom_site_fract_x
_atom_site_fract_y
_atom_site_fract_z
     1  I          0.95276718       0.26912910       0.37415980
     2  I          0.04723282       0.73087090       0.62584020
     3  C          0.27683000       0.10777170       0.45070120
     4  C          0.72317000       0.89222830       0.54929880
     5  C          0.42903000       0.12913170       0.53008130
     6  C          0.57097000       0.87086830       0.46991870
     7  F          0.36762000       0.25445120       0.56169100
     8  F          0.63238000       0.74554880       0.43830900
     9  C          0.35103000       0.97578830       0.42261120
    10  C          0.64897000       0.02421170       0.57738880
    11  F          0.20622000       0.94597880       0.34866800
    12  F          0.79378000       0.05402120       0.65133200
    13  N          0.51163000       0.46973150       0.26560130
    14  N          0.48837000       0.53026850       0.73439870
    15  C          0.34484000       0.57743190       0.30028150
    16  C          0.65516000       0.42256810       0.69971850
    17  H          0.37500000       0.59150000       0.37050000
    18  H          0.62500000       0.40850000       0.62950000
    19  C          0.12893000       0.67030170       0.23932130
    20  C          0.87107000       0.32969830       0.76067870
    21  H          0.01630000       0.74650000       0.26710000
    22  H         -0.01630000       0.25350000       0.73290000
    23  C          0.07983000       0.65022140       0.13705120
    24  C          0.92017000       0.34977860       0.86294880
    25  C          0.25193000       0.53575160       0.10181130
    26  C          0.74807000       0.46424840       0.89818870
    27  H          0.22440000       0.51700000       0.03290000
    28  H          0.77560000       0.48300000       0.96710000
    29  C          0.46353000       0.44954170       0.16814150
    30  C          0.53647000       0.55045830       0.83185850
    31  H          0.58000000       0.37220000       0.14280000
    32  H          0.42000000       0.62780000       0.85720000
    33  C          0.84847000       0.74497150       0.06553130
    34  C          0.15153000       0.25502850       0.93446870
    35  H          0.89780000       0.74700000       0.98810000
    36  H          0.10220000       0.25300000       0.01190000
    37  H          0.68980000       0.70330000       0.08130000
    38  H          0.31020000       0.29670000       0.91870000
    39  N          0.77678000       0.89120130       0.08189100
    40  N          0.22322000       0.10879870       0.91810900
    41  C          0.89147000       0.00355140       0.03967110
    42  C          0.10853000      -0.00355140       0.96032890
    43  N          0.77707000       0.11808130       0.07919110
    44  N          0.22293000       0.88191870       0.92080890
    45  C          0.58327000       0.07684160       0.15027130
    46  C          0.41673000       0.92315840       0.84972870
    47  H          0.46790000       0.13660000       0.19170000
    48  H          0.53210000       0.86340000       0.80830000
    49  C          0.58037000       0.93835160       0.15281130
    50  C          0.41963000       0.06164840       0.84718870
    51  H          0.46530000       0.88490000       0.19520000
    52  H          0.53470000       0.11510000       0.80480000
