data_EFUFUI
_symmetry_space_group_name_H-M    'P1'
_symmetry_Int_Tables_number       1
loop_
_symmetry_equiv_pos_site_id
_symmetry_equiv_pos_as_xyz
1 x,y,z
_cell_length_a                   8.11271
_cell_length_b                   8.40481
_cell_length_c                   15.893019
_cell_angle_alpha                84.4493
_cell_angle_beta                 79.1633
_cell_angle_gamma                83.7233
loop_
_atom_site_label
_atom_site_type_symbol
_atom_site_fract_x
_atom_site_fract_y
_atom_site_fract_z
     1  N          0.90538000       0.97412000       0.90285120
     2  N          0.09462000       0.02588000       0.09714880
     3  C          0.92347000       0.01802000       0.98143130
     4  C          0.07653000       0.98198000       0.01856870
     5  N          0.78238000       0.09792000       0.01903120
     6  N          0.21762000       0.90208000       0.98096880
     7  C          0.67077000       0.10163000       0.96399160
     8  C          0.32923000       0.89837000       0.03600840
     9  H          0.55840000       0.15040000       0.97430000
    10  H          0.44160000       0.84960000       0.02570000
    11  C          0.74347000       0.02563000       0.89242150
    12  C          0.25653000       0.97437000       0.10757850
    13  H          0.69250000       0.01120000       0.84490000
    14  H          0.30750000      -0.01120000       0.15510000
    15  N          0.01873000       0.47632000       0.76279130
    16  N          0.98127000       0.52368000       0.23720870
    17  C          0.03873000       0.63113000       0.76597140
    18  C          0.96127000       0.36887000       0.23402860
    19  H          0.09160000       0.68760000       0.71510000
    20  H          0.90840000       0.31240000       0.28490000
    21  C          0.98667000       0.71483000       0.83947140
    22  C          0.01333000       0.28517000       0.16052860
    23  C          0.90657000       0.63163000       0.91272150
    24  C          0.09343000       0.36837000       0.08727850
    25  H          0.86750000       0.68400000       0.96410000
    26  H          0.13250000       0.31600000       0.03590000
    27  C          0.88416000       0.47123000       0.91002180
    28  C          0.11584000       0.52877000       0.08997820
    29  H          0.82950000       0.41200000       0.95950000
    30  H          0.17050000       0.58800000       0.04050000
    31  C          0.94226000       0.39883000       0.83456170
    32  C          0.05774000       0.60117000       0.16543830
    33  H          0.92740000       0.28850000       0.83340000
    34  H          0.07260000       0.71150000       0.16660000
    35  C          0.02433000       0.88723000       0.83833140
    36  C          0.97567000       0.11277000       0.16166860
    37  H          0.14020000       0.88950000       0.84930000
    38  H          0.85980000       0.11050000       0.15070000
    39  H          0.01890000       0.94160000       0.78070000
    40  H          0.98110000       0.05840000       0.21930000
    41  C          0.20093000       0.08703000       0.54398140
    42  C          0.79907000       0.91297000       0.45601860
    43  I          0.12657317       0.26047616       0.63352090
    44  I          0.87342683       0.73952384       0.36647910
    45  C          0.16213000       0.11282000       0.46200140
    46  C          0.83787000       0.88718000       0.53799860
    47  F          0.06364170       0.24393160       0.44126900
    48  F          0.93635830       0.75606840       0.55873100
    49  C          0.21913000       0.00432000       0.40068130
    50  C          0.78087000      -0.00432000       0.59931870
    51  F          0.17678180       0.03591160       0.32269800
    52  F          0.82321820       0.96408840       0.67730200
    53  C          0.31603000       0.86138000       0.41811130
    54  C          0.68397000       0.13862000       0.58188870
    55  C          0.35173000       0.83437000       0.50089140
    56  C          0.64827000       0.16563000       0.49910860
    57  F          0.44469190       0.70013830       0.52254900
    58  F          0.55530810       0.29986170       0.47745100
    59  C          0.29453000       0.94397000       0.56192140
    60  C          0.70547000       0.05603000       0.43807860
    61  F          0.33410190       0.90896820       0.64042900
    62  F          0.66589810       0.09103180       0.35957100
    63  C          0.48803000       0.52037000       0.22755140
    64  C          0.51197000       0.47963000       0.77244860
    65  I          0.57288219       0.35331782       0.13750610
    66  I          0.42711781       0.64668218       0.86249390
    67  C          0.39363000       0.47507000       0.30697140
    68  C          0.60637000       0.52493000       0.69302860
    69  F          0.35332000       0.32400840       0.32453100
    70  F          0.64668000       0.67599160       0.67546900
    71  C          0.33943000       0.58447000       0.36814140
    72  C          0.66057000       0.41553000       0.63185860
    73  F          0.24787180       0.53558840       0.44320900
    74  F          0.75212820       0.46441160       0.55679100
    75  C          0.37533000       0.74448000       0.35269130
    76  C          0.62467000       0.25552000       0.64730870
    77  C          0.47033000       0.78778000       0.27277140
    78  C          0.52967000       0.21222000       0.72722860
    79  F          0.51141180       0.93894840       0.25408900
    80  F          0.48858820       0.06105160       0.74591100
    81  C          0.52683000       0.67797000       0.21210130
    82  C          0.47317000       0.32203000       0.78789870
    83  F          0.62162180       0.72778820       0.13739900
    84  F          0.37837820       0.27221180       0.86260100
