data_EFUSIK
_symmetry_space_group_name_H-M    'P1'
_symmetry_Int_Tables_number       1
loop_
_symmetry_equiv_pos_site_id
_symmetry_equiv_pos_as_xyz
1 x,y,z
_cell_length_a                   9.994011
_cell_length_b                   9.84851
_cell_length_c                   19.0102
_cell_angle_alpha                90.0
_cell_angle_beta                 96.4514
_cell_angle_gamma                90.0
loop_
_atom_site_label
_atom_site_type_symbol
_atom_site_fract_x
_atom_site_fract_y
_atom_site_fract_z
     1  C          0.55223000       0.20532000       0.09837140
     2  C          0.44777000       0.70532000       0.40162860
     3  C          0.44777000       0.79468000       0.90162860
     4  C          0.55223000       0.29468000       0.59837140
     5  C          0.72253000       0.32632000       0.14721140
     6  C          0.27747000       0.82632000       0.35278860
     7  C          0.27747000       0.67368000       0.85278860
     8  C          0.72253000       0.17368000       0.64721140
     9  C          0.68593000       0.40843000       0.08784140
    10  C          0.31407000       0.90843000       0.41215860
    11  C          0.31407000       0.59157000       0.91215860
    12  C          0.68593000       0.09157000       0.58784140
    13  C          0.75673000       0.52643000       0.07553150
    14  C          0.24327000       0.02643000       0.42446850
    15  C          0.24327000       0.47357000       0.92446850
    16  C          0.75673000       0.97357000       0.57553150
    17  H          0.73270000       0.58020000       0.03590000
    18  H          0.26730000       0.08020000       0.46410000
    19  H          0.26730000       0.41980000       0.96410000
    20  H          0.73270000       0.91980000       0.53590000
    21  C          0.86403000       0.55983000       0.12458150
    22  C          0.13597000       0.05983000       0.37541850
    23  C          0.13597000       0.44017000       0.87541850
    24  C          0.86403000       0.94017000       0.62458150
    25  H          0.91340000       0.63770000       0.11780000
    26  H          0.08660000       0.13770000       0.38220000
    27  H          0.08660000       0.36230000       0.88220000
    28  H          0.91340000       0.86230000       0.61780000
    29  C          0.89993000       0.47953000       0.18399150
    30  C          0.10007000       0.97953000       0.31600850
    31  C          0.10007000       0.52047000       0.81600850
    32  C          0.89993000       0.02047000       0.68399150
    33  H          0.97230000       0.50610000       0.21610000
    34  H          0.02770000       0.00610000       0.28390000
    35  H          0.02770000       0.49390000       0.78390000
    36  H          0.97230000      -0.00610000       0.71610000
    37  C          0.83173000       0.36143000       0.19695140
    38  C          0.16827000       0.86143000       0.30304860
    39  C          0.16827000       0.63857000       0.80304860
    40  C          0.83173000       0.13857000       0.69695140
    41  C          0.86933000       0.27503000       0.26102160
    42  C          0.13067000       0.77503000       0.23897840
    43  C          0.13067000       0.72497000       0.73897840
    44  C          0.86933000       0.22497000       0.76102160
    45  H          0.95840000       0.29830000       0.28170000
    46  H          0.04160000       0.79830000       0.21830000
    47  H          0.04160000       0.70170000       0.71830000
    48  H          0.95840000       0.20170000       0.78170000
    49  H          0.86700000       0.18110000       0.24750000
    50  H          0.13300000       0.68110000       0.25250000
    51  H          0.13300000       0.81890000       0.75250000
    52  H          0.86700000       0.31890000       0.74750000
    53  H          0.80650000       0.29030000       0.29490000
    54  H          0.19350000       0.79030000       0.20510000
    55  H          0.19350000       0.70970000       0.70510000
    56  H          0.80650000       0.20970000       0.79490000
    57  C          0.36123000       0.07953000       0.03753140
    58  C          0.63877000       0.57953000       0.46246860
    59  C          0.63877000       0.92047000       0.96246860
    60  C          0.36123000       0.42047000       0.53753140
    61  C          0.18653000       0.90477000       0.00216140
    62  C          0.81347000       0.40477000       0.49783860
    63  C          0.81347000       0.09523000      -0.00216140
    64  C          0.18653000       0.59523000       0.50216140
    65  C          0.14023000       0.77727000       0.02193150
    66  C          0.85977000       0.27727000       0.47806850
    67  C          0.85977000       0.22273000       0.97806850
    68  C          0.14023000       0.72273000       0.52193150
    69  H          0.18330000       0.73340000       0.06150000
    70  H          0.81670000       0.23340000       0.43850000
    71  H          0.81670000       0.26660000       0.93850000
    72  H          0.18330000       0.76660000       0.56150000
    73  C          0.03173000       0.71657000       0.98336840
    74  C          0.96827000       0.21657000       0.51663160
    75  C          0.96827000       0.28343000       0.01663160
    76  C          0.03173000       0.78343000       0.48336840
    77  H          0.00130000       0.63200000      -0.00370000
    78  H         -0.00130000       0.13200000       0.50370000
    79  H         -0.00130000       0.36800000       0.00370000
    80  H          0.00130000       0.86800000       0.49630000
    81  C          0.96837000       0.78397000       0.92487840
    82  C          0.03163000       0.28397000       0.57512160
    83  C          0.03163000       0.21603000       0.07512160
    84  C          0.96837000       0.71603000       0.42487840
    85  C          0.01163000       0.90967000       0.90449850
    86  C         -0.01163000       0.40967000       0.59550150
    87  C         -0.01163000       0.09033000       0.09550150
    88  C          0.01163000       0.59033000       0.40449850
    89  H          0.96710000       0.95330000       0.86520000
    90  H          0.03290000       0.45330000       0.63480000
    91  H          0.03290000       0.04670000       0.13480000
    92  H          0.96710000       0.54670000       0.36520000
    93  C          0.12123000       0.97027000       0.94280860
    94  C          0.87877000       0.47027000       0.55719140
    95  C          0.87877000       0.02973000       0.05719140
    96  C          0.12123000       0.52973000       0.44280860
    97  H          0.15150000       0.05450000       0.92910000
    98  H          0.84850000       0.55450000       0.57090000
    99  H          0.84850000       0.94550000       0.07090000
   100  H          0.15150000       0.44550000       0.42910000
   101  N          0.64422000       0.21002000       0.15171110
   102  N          0.35578000       0.71002000       0.34828890
   103  N          0.35578000       0.78998000       0.84828890
   104  N          0.64422000       0.28998000       0.65171110
   105  N          0.46392000       0.09722000       0.09105120
   106  N          0.53608000       0.59722000       0.40894880
   107  N          0.53608000       0.90278000       0.90894880
   108  N          0.46392000       0.40278000       0.59105120
   109  N          0.29662000       0.95788000       0.04440130
   110  N          0.70338000       0.45788000       0.45559870
   111  N          0.70338000       0.04212000       0.95559870
   112  N          0.29662000       0.54212000       0.54440130
   113  N          0.85247000       0.72107000       0.88343840
   114  N          0.14753000       0.22107000       0.61656160
   115  N          0.14753000       0.27893000       0.11656160
   116  N          0.85247000       0.77893000       0.38343840
   117  O          0.33343190       0.16304180       0.98996900
   118  O          0.66656810       0.66304180       0.51003100
   119  O          0.66656810       0.83695820       0.01003100
   120  O          0.33343190       0.33695820       0.48996900
   121  O          0.82028000       0.60537000       0.89923860
   122  O          0.17972000       0.10537000       0.60076140
   123  O          0.17972000       0.39463000       0.10076140
   124  O          0.82028000       0.89463000       0.39923860
   125  O          0.79318000       0.78717000       0.83454860
   126  O          0.20682000       0.28717000       0.66545140
   127  O          0.20682000       0.21283000       0.16545140
   128  O          0.79318000       0.71283000       0.33454860
   129  S          0.54742700       0.33756600       0.03659400
   130  S          0.45257300       0.83756600       0.46340600
   131  S          0.45257300       0.66243400       0.96340600
   132  S          0.54742700       0.16243400       0.53659400
   133  H          0.47530000       0.03630000       0.12521700
   134  H          0.52470000       0.53630000       0.37478300
   135  H          0.52470000       0.96370000       0.87478300
   136  H          0.47530000       0.46370000       0.62521700
   137  H          0.32630000       0.91770000       0.08031500
   138  H          0.67370000       0.41770000       0.41968500
   139  H          0.67370000       0.08230000       0.91968500
   140  H          0.32630000       0.58230000       0.58031500
   141  C          0.52963000       0.63723000       0.20225180
   142  C          0.47037000       0.13723000       0.29774820
   143  C          0.47037000       0.36277000       0.79774820
   144  C          0.52963000       0.86277000       0.70225180
   145  H          0.44640000       0.60060000       0.21470000
   146  H          0.55360000       0.10060000       0.28530000
   147  H          0.55360000       0.39940000       0.78530000
   148  H          0.44640000       0.89940000       0.71470000
   149  H          0.60370000       0.58820000       0.22690000
   150  H          0.39630000       0.08820000       0.27310000
   151  H          0.39630000       0.41180000       0.77310000
   152  H          0.60370000       0.91180000       0.72690000
   153  H          0.53240000       0.62850000       0.15210000
   154  H          0.46760000       0.12850000       0.34790000
   155  H          0.46760000       0.37150000       0.84790000
   156  H          0.53240000       0.87150000       0.65210000
   157  S          0.54150700       0.81148700       0.22635400
   158  S          0.45849300       0.31148700       0.27364600
   159  S          0.45849300       0.18851300       0.77364600
   160  S          0.54150700       0.68851300       0.72635400
   161  C          0.69143000       0.85223000       0.18758160
   162  C          0.30857000       0.35223000       0.31241840
   163  C          0.30857000       0.14777000       0.81241840
   164  C          0.69143000       0.64777000       0.68758160
   165  H          0.67980000       0.82840000       0.13830000
   166  H          0.32020000       0.32840000       0.36170000
   167  H          0.32020000       0.17160000       0.86170000
   168  H          0.67980000       0.67160000       0.63830000
   169  H          0.76580000       0.80230000       0.21120000
   170  H          0.23420000       0.30230000       0.28880000
   171  H          0.23420000       0.19770000       0.78880000
   172  H          0.76580000       0.69770000       0.71120000
   173  H          0.70890000       0.94780000       0.19240000
   174  H          0.29110000       0.44780000       0.30760000
   175  H          0.29110000       0.05220000       0.80760000
   176  H          0.70890000       0.55220000       0.69240000
   177  O          0.42925180       0.87970190       0.17874100
   178  O          0.57074820       0.37970190       0.32125900
   179  O          0.57074820       0.12029810       0.82125900
   180  O          0.42925180       0.62029810       0.67874100
