data_EGOPUN
_symmetry_space_group_name_H-M    'P1'
_symmetry_Int_Tables_number       1
loop_
_symmetry_equiv_pos_site_id
_symmetry_equiv_pos_as_xyz
1 x,y,z
_cell_length_a                   20.66744
_cell_length_b                   9.919201
_cell_length_c                   7.253301
_cell_angle_alpha                90.0
_cell_angle_beta                 106.9262
_cell_angle_gamma                90.0
loop_
_atom_site_label
_atom_site_type_symbol
_atom_site_fract_x
_atom_site_fract_y
_atom_site_fract_z
     1  I          0.50000000       0.00000000       0.50000000
     2  I          0.00000000       0.50000000       0.50000000
     3  I          0.35264712       0.00000000       0.39641300
     4  I          0.64735288       0.00000000       0.60358700
     5  I          0.85264712       0.50000000       0.39641300
     6  I          0.14735288       0.50000000       0.60358700
     7  S          0.88816400       0.50000000       0.91717140
     8  S          0.11183600       0.50000000       0.08282860
     9  S          0.38816400       0.00000000       0.91717140
    10  S          0.61183600       0.00000000       0.08282860
    11  N          0.83674100       0.62592000       0.88453000
    12  N          0.16325900       0.62592000       0.11547000
    13  N          0.33674100       0.12592000       0.88453000
    14  N          0.66325900       0.12592000       0.11547000
    15  N          0.16325900       0.37408000       0.11547000
    16  N          0.83674100       0.37408000       0.88453000
    17  N          0.66325900       0.87408000       0.11547000
    18  N          0.33674100       0.87408000       0.88453000
    19  C          0.77407120       0.57222000       0.84593000
    20  C          0.22592880       0.57222000       0.15407000
    21  C          0.27407120       0.07222000       0.84593000
    22  C          0.72592880       0.07222000       0.15407000
    23  C          0.22592880       0.42778000       0.15407000
    24  C          0.77407120       0.42778000       0.84593000
    25  C          0.72592880       0.92778000       0.15407000
    26  C          0.27407120       0.92778000       0.84593000
    27  C          0.71295120       0.64542000       0.81453000
    28  C          0.28704880       0.64542000       0.18547000
    29  C          0.21295120       0.14542000       0.81453000
    30  C          0.78704880       0.14542000       0.18547000
    31  C          0.28704880       0.35458000       0.18547000
    32  C          0.71295120       0.35458000       0.81453000
    33  C          0.78704880       0.85458000       0.18547000
    34  C          0.21295120       0.85458000       0.81453000
    35  H          0.71240000       0.74120000       0.81180000
    36  H          0.28760000       0.74120000       0.18820000
    37  H          0.21240000       0.24120000       0.81180000
    38  H          0.78760000       0.24120000       0.18820000
    39  H          0.28760000       0.25880000       0.18820000
    40  H          0.71240000       0.25880000       0.81180000
    41  H          0.78760000       0.75880000       0.18820000
    42  H          0.21240000       0.75880000       0.81180000
    43  C          0.65468110       0.57252000       0.78833000
    44  C          0.34531890       0.57252000       0.21167000
    45  C          0.15468110       0.07252000       0.78833000
    46  C          0.84531890       0.07252000       0.21167000
    47  C          0.34531890       0.42748000       0.21167000
    48  C          0.65468110       0.42748000       0.78833000
    49  C          0.84531890       0.92748000       0.21167000
    50  C          0.15468110       0.92748000       0.78833000
    51  S          0.57592300       0.64932500       0.75237900
    52  S          0.42407700       0.64932500       0.24762100
    53  S          0.07592300       0.14932500       0.75237900
    54  S          0.92407700       0.14932500       0.24762100
    55  S          0.42407700       0.35067500       0.24762100
    56  S          0.57592300       0.35067500       0.75237900
    57  S          0.92407700       0.85067500       0.24762100
    58  S          0.07592300       0.85067500       0.75237900
    59  C          0.53105160       0.50000000       0.74325000
    60  C          0.46894840       0.50000000       0.25675000
    61  C          0.03105160       0.00000000       0.74325000
    62  C          0.96894840       0.00000000       0.25675000
    63  C          0.46434170       0.50000000       0.73565000
    64  C          0.53565830       0.50000000       0.26435000
    65  C          0.96434170       0.00000000       0.73565000
    66  C          0.03565830       0.00000000       0.26435000
    67  S          0.41865300       0.64819600       0.72941100
    68  S          0.58134700       0.64819600       0.27058900
    69  S          0.91865300       0.14819600       0.72941100
    70  S          0.08134700       0.14819600       0.27058900
    71  S          0.58134700       0.35180400       0.27058900
    72  S          0.41865300       0.35180400       0.72941100
    73  S          0.08134700       0.85180400       0.27058900
    74  S          0.91865300       0.85180400       0.72941100
    75  C          0.34293130       0.56753000       0.71124000
    76  C          0.65706870       0.56753000       0.28876000
    77  C          0.84293130       0.06753000       0.71124000
    78  C          0.15706870       0.06753000       0.28876000
    79  C          0.65706870       0.43247000       0.28876000
    80  C          0.34293130       0.43247000       0.71124000
    81  C          0.15706870       0.93247000       0.28876000
    82  C          0.84293130       0.93247000       0.71124000
    83  H          0.30280000       0.61710000       0.70150000
    84  H          0.69720000       0.61710000       0.29850000
    85  H          0.80280000       0.11710000       0.70150000
    86  H          0.19720000       0.11710000       0.29850000
    87  H          0.69720000       0.38290000       0.29850000
    88  H          0.30280000       0.38290000       0.70150000
    89  H          0.19720000       0.88290000       0.29850000
    90  H          0.80280000       0.88290000       0.70150000
