data_EGOQAU
_symmetry_space_group_name_H-M    'P1'
_symmetry_Int_Tables_number       1
loop_
_symmetry_equiv_pos_site_id
_symmetry_equiv_pos_as_xyz
1 x,y,z
_cell_length_a                   8.4988316
_cell_length_b                   9.53052
_cell_length_c                   11.59403
_cell_angle_alpha                94.2672
_cell_angle_beta                 93.269317
_cell_angle_gamma                101.727519
loop_
_atom_site_label
_atom_site_type_symbol
_atom_site_fract_x
_atom_site_fract_y
_atom_site_fract_z
     1  I          0.11361200       0.81595200       0.68844200
     2  I          0.88638800       0.18404800       0.31155800
     3  I          0.88970200       0.58910200       0.81885200
     4  I          0.11029800       0.41089800       0.18114800
     5  I          0.69794200       0.37422200       0.92835200
     6  I          0.30205800       0.62577800       0.07164800
     7  I          0.60092200       0.05572200       0.09777200
     8  I          0.39907800       0.94427800       0.90222800
     9  S          0.19221700       0.46192600       0.51820500
    10  S          0.80778300       0.53807400       0.48179500
    11  S          0.41894700       0.52682600       0.72549500
    12  S          0.58105300       0.47317400       0.27450500
    13  S          0.86645300       0.01867700       0.86380500
    14  S          0.13354700       0.98132300       0.13619500
    15  S          0.40462700       0.71858700       0.39757500
    16  S          0.59537300       0.28141300       0.60242500
    17  S          0.62895800       0.78734600       0.60265500
    18  S          0.37104200       0.21265400       0.39734500
    19  C          0.00083000       0.25582000       0.62834190
    20  C         -0.00083000       0.74418000       0.37165810
    21  H          0.92850000       0.23620000       0.56080000
    22  H          0.07150000       0.76380000       0.43920000
    23  N          0.83998000       0.07382000       0.73749170
    24  N          0.16002000       0.92618000       0.26250830
    25  N          0.03552000       0.12012000       0.91189170
    26  N          0.96448000       0.87988000       0.08810830
    27  C          0.13903000       0.35972000       0.63420190
    28  C          0.86097000       0.64028000       0.36579810
    29  C          0.25023000       0.38912000       0.73480190
    30  C          0.74977000       0.61088000       0.26519810
    31  C          0.66713000       0.89363000       0.48982000
    32  C          0.33287000       0.10637000       0.51018000
    33  H          0.75750000       0.97160000       0.49430000
    34  H          0.24250000       0.02840000       0.50570000
    35  C          0.22503000       0.31353000       0.83062000
    36  C          0.77497000       0.68647000       0.16938000
    37  H          0.30000000       0.33250000       0.89670000
    38  H          0.70000000       0.66750000       0.10330000
    39  C          0.97057000       0.17952000       0.72652000
    40  C          0.02943000       0.82048000       0.27348000
    41  C          0.56383000       0.86183000       0.39482000
    42  C          0.43617000       0.13817000       0.60518000
    43  H          0.57800000       0.91590000       0.32920000
    44  H          0.42200000       0.08410000       0.67080000
    45  C          0.45733000       0.67852000       0.53492000
    46  C          0.54267000       0.32148000       0.46508000
    47  C          0.36553000       0.56592000       0.58837190
    48  C          0.63447000       0.43408000       0.41162810
    49  C          0.08263000       0.20592000       0.82663190
    50  C          0.91737000       0.79408000       0.17336810
