data_EHAKAB
_symmetry_space_group_name_H-M    'P1'
_symmetry_Int_Tables_number       1
loop_
_symmetry_equiv_pos_site_id
_symmetry_equiv_pos_as_xyz
1 x,y,z
_cell_length_a                   8.80946
_cell_length_b                   10.43486
_cell_length_c                   11.22418
_cell_angle_alpha                100.1675
_cell_angle_beta                 91.0175
_cell_angle_gamma                102.1035
loop_
_atom_site_label
_atom_site_type_symbol
_atom_site_fract_x
_atom_site_fract_y
_atom_site_fract_z
     1  Cl         0.90705140       0.36830120       0.60382110
     2  O          0.49974000       0.84034000       0.76623000
     3  C          0.58495000       0.78694000       0.83764000
     4  C          0.54875000       0.77954000       0.95734000
     5  C          0.64216000       0.71905000       0.02505000
     6  C          0.76296000       0.66955000       0.97285000
     7  C          0.79546000       0.67765000       0.85776000
     8  C          0.70845000       0.73605000       0.78655000
     9  C          0.42365000       0.83204000       0.01124000
    10  N          0.32914000       0.88394000       0.94823000
    11  C          0.22925000       0.93524000       0.02984000
    12  C          0.11465000      -0.00286000      -0.00166000
    13  C          0.06375000      -0.00286000       0.87884000
    14  N          0.08674000       0.90823000       0.77683000
    15  C          0.01675000       0.93064000       0.67644000
    16  C          0.00645000       0.84585000       0.55664000
    17  C          0.02306000       0.71385000       0.53834000
    18  O          0.05894000       0.66293000       0.63633000
    19  C         -0.00157000       0.63517000       0.42465000
    20  C          0.96472000       0.69068000       0.32645000
    21  C          0.94663000       0.81878000       0.34235000
    22  C          0.97044000       0.89486000       0.45395000
    23  C          0.95225000       0.04205000       0.71155000
    24  C          0.97895000       0.08065000       0.83565000
    25  C          0.03715000       0.06794000       0.09804000
    26  C          0.87485000       0.03624000       0.09954000
    27  C          0.79883000       0.09206000       0.19545000
    28  C          0.88272000       0.18126000       0.28975000
    29  C          0.04107000       0.21556000       0.28945000
    30  C          0.11996000       0.15905000       0.19435000
    31  C          0.26776000       0.91055000       0.14774000
    32  C          0.38606000       0.84595000       0.13574000
    33  H          0.61970000       0.71510000       0.11070000
    34  H          0.82630000       0.63080000       0.01910000
    35  H          0.88210000       0.64430000       0.82640000
    36  H          0.73430000       0.74050000       0.70270000
    37  H          0.01020000       0.54140000       0.41330000
    38  H          0.94990000       0.63770000       0.24430000
    39  H          0.91410000       0.85490000       0.27400000
    40  H          0.96500000      -0.01330000       0.46700000
    41  H          0.89580000       0.08360000       0.65980000
    42  H          0.94160000       0.15310000       0.88650000
    43  H          0.81540000       0.97540000       0.02940000
    44  H          0.68410000       0.06740000       0.19530000
    45  H          0.83140000       0.22320000       0.35710000
    46  H          0.09570000       0.27790000       0.35470000
    47  H          0.23210000       0.18050000       0.19570000
    48  H          0.21660000       0.93670000       0.22320000
    49  H          0.43530000       0.81340000       0.19500000
    50  H          0.43270000       0.86200000       0.81460000
    51  H          0.04490000       0.57870000       0.60970000
    52  H          0.14600000       0.84000000       0.77720000
    53  N          0.41184000       0.31424000       0.70794000
    54  C          0.48686000       0.41275000       0.63175000
    55  C          0.39129000       0.41997000       0.52096000
    56  C          0.47231200       0.53119000       0.45948000
    57  C          0.41421400       0.53001100       0.33959000
    58  C          0.36416000       0.17405000       0.63185000
    59  C          0.49537000       0.11486000       0.58007000
    60  C          0.43797000       0.97954000       0.50586000
    61  C          0.56509000       0.91232000       0.45917000
    62  C          0.26495000       0.34934000       0.76075000
    63  C          0.28016000       0.49045000       0.82705000
    64  C          0.14587000       0.50536000       0.90676000
    65  C          0.15611000       0.45648000       0.02227000
    66  C          0.53216000       0.31835000       0.80625000
    67  C          0.48419000       0.22037000       0.89147000
    68  C          0.60411100       0.21718000       0.97938000
    69  C          0.63871600       0.34059000       0.07139000
    70  H          0.51280000       0.50140000       0.68420000
    71  H          0.58310000       0.38870000       0.60320000
    72  H          0.28670000       0.43570000       0.54770000
    73  H          0.37130000       0.33620000       0.46570000
    74  H          0.47310000       0.61900000       0.50880000
    75  H          0.58340000       0.52230000       0.45340000
    76  H          0.48830000       0.58370000       0.30050000
    77  H          0.31440000       0.55660000       0.34410000
    78  H          0.39710000       0.43520000       0.29530000
    79  H          0.30680000       0.11430000       0.68210000
    80  H          0.28930000       0.17520000       0.56530000
    81  H          0.57050000       0.11000000       0.64470000
    82  H          0.55260000       0.17310000       0.52590000
    83  H          0.36980000       0.92080000       0.55620000
    84  H          0.37450000      -0.01100000       0.43790000
    85  H          0.52310000       0.81920000       0.41500000
    86  H          0.63500000       0.91020000       0.52740000
    87  H          0.62180000       0.96610000       0.40240000
    88  H          0.23050000       0.28800000       0.81730000
    89  H          0.18350000       0.33340000       0.69540000
    90  H          0.37660000       0.51450000       0.87770000
    91  H          0.28680000       0.55210000       0.76820000
    92  H          0.13910000       0.60260000       0.92550000
    93  H          0.05050000       0.45440000       0.86160000
    94  H          0.07550000       0.47950000       0.07480000
    95  H          0.25810000       0.49510000       0.06410000
    96  H          0.14270000       0.35800000       0.00500000
    97  H          0.56050000       0.40940000       0.85350000
    98  H          0.62850000       0.29810000       0.76480000
    99  H          0.39830000       0.24880000       0.93620000
   100  H          0.44800000       0.13230000       0.84240000
   101  H          0.57440000       0.13590000       0.01820000
   102  H          0.69670000       0.21330000       0.93580000
   103  H          0.75020000       0.37010000       0.08230000
   104  H          0.59490000       0.31890000       0.14980000
   105  H          0.58950000       0.40560000       0.04690000
