data_EHEKIM
_symmetry_space_group_name_H-M    'P1'
_symmetry_Int_Tables_number       1
loop_
_symmetry_equiv_pos_site_id
_symmetry_equiv_pos_as_xyz
1 x,y,z
_cell_length_a                   8.16549
_cell_length_b                   11.714713
_cell_length_c                   13.151814
_cell_angle_alpha                86.2925
_cell_angle_beta                 77.5465
_cell_angle_gamma                78.9825
loop_
_atom_site_label
_atom_site_type_symbol
_atom_site_fract_x
_atom_site_fract_y
_atom_site_fract_z
     1  C          0.22772000       0.05236150       0.82153130
     2  C          0.77228000       0.94763850       0.17846870
     3  C          0.11662000       0.12583140       0.91028130
     4  C          0.88338000       0.87416860       0.08971870
     5  C          0.00016190       0.06485130       0.00137120
     6  C         -0.00016190       0.93514870      -0.00137120
     7  C          0.83748000       0.15173140       0.98036120
     8  C          0.16252000       0.84826860       0.01963880
     9  C          0.95018000       0.19996140       0.88028120
    10  C          0.04982000       0.80003860       0.11971880
    11  C          0.94518000       0.32759150       0.86404130
    12  C          0.05482000       0.67240850       0.13595870
    13  C         -0.00472000       0.38727150       0.77590140
    14  C          0.00472000       0.61272850       0.22409860
    15  C          0.06113000       0.32752170       0.67495140
    16  C          0.93887000       0.67247830       0.32504860
    17  C          0.77048000       0.24410140       0.06276130
    18  C          0.22952000       0.75589860       0.93723870
    19  C          0.22242000       0.19837160       0.95228140
    20  C          0.77758000       0.80162840       0.04771860
    21  C          0.69308000       0.10080150       0.95451140
    22  C          0.30692000       0.89919850       0.04548860
    23  C         -0.00843000       0.51602170       0.77452160
    24  C          0.00843000       0.48397830       0.22547840
    25  H          0.31440000       0.14670000       0.97850000
    26  H          0.68560000       0.85330000       0.02150000
    27  H          0.14940000       0.24620000       0.00900000
    28  H          0.85060000       0.75380000      -0.00900000
    29  H          0.27150000       0.24890000       0.89630000
    30  H          0.72850000       0.75110000       0.10370000
    31  H          0.62880000       0.06920000       0.01830000
    32  H          0.37120000       0.93080000       0.98170000
    33  H          0.74090000       0.03850000       0.90450000
    34  H          0.25910000       0.96150000       0.09550000
    35  H          0.61680000       0.16200000       0.92420000
    36  H          0.38320000       0.83800000       0.07580000
    37  H          0.93720000       0.54650000       0.84370000
    38  H          0.06280000       0.45350000       0.15630000
    39  H          0.92660000       0.55440000       0.72330000
    40  H          0.07340000       0.44560000       0.27670000
    41  H          0.10840000       0.53120000       0.75560000
    42  H          0.89160000       0.46880000       0.24440000
    43  H          0.21040000       0.94730000       0.73390000
    44  H          0.78960000       0.05270000       0.26610000
    45  H          0.02350000       0.08280000       0.06960000
    46  H          0.97650000       0.91720000       0.93040000
    47  H          0.58640000       0.35550000       0.10040000
    48  H          0.41360000       0.64450000       0.89960000
    49  H          0.92900000       0.16730000       0.81690000
    50  H          0.07100000       0.83270000       0.18310000
    51  H          0.90040000       0.37290000       0.92450000
    52  H          0.09960000       0.62710000       0.07550000
    53  H          0.11590000       0.36000000       0.53880000
    54  H          0.88410000       0.64000000       0.46120000
    55  O          0.14380160       0.98614110       0.78255100
    56  O          0.85619840       0.01385890       0.21744900
    57  O          0.37799160       0.05449130       0.78900110
    58  O          0.62200840       0.94550870       0.21099890
    59  O          0.85052830       0.26727110       0.12337100
    60  O          0.14947170       0.73272890       0.87662900
    61  O          0.61579840       0.30211120       0.05690100
    62  O          0.38420160       0.69788880       0.94309900
    63  O          0.09772000       0.22246130       0.66619120
    64  O          0.90228000       0.77753870       0.33380880
    65  O          0.08402000       0.39874120       0.59343110
    66  O          0.91598000       0.60125880       0.40656890
    67  C          0.21532000       0.75568170       0.62478140
    68  C          0.78468000       0.24431830       0.37521860
    69  C          0.24922000       0.68315160       0.54112140
    70  C          0.75078000       0.31684840       0.45887860
    71  C          0.37902000       0.69835150       0.45613130
    72  C          0.62098000       0.30164850       0.54386870
    73  C          0.47052000       0.78608160       0.46085140
    74  C          0.52948000       0.21391840       0.53914860
    75  C          0.42642000       0.85460160       0.54799150
    76  C          0.57358000       0.14539840       0.45200850
    77  C          0.42002000       0.62065150       0.36545130
    78  C          0.57998000       0.37934850       0.63454870
    79  C          0.40042000       0.50543160       0.37854150
    80  C          0.59958000       0.49456840       0.62145850
    81  C          0.44513000       0.43464160       0.29358150
    82  C          0.55487000       0.56535840       0.70641850
    83  C          0.51653000       0.58383170       0.18338150
    84  C          0.48347000       0.41616830       0.81661850
    85  C          0.47943000       0.66023170       0.26442150
    86  C          0.52057000       0.33976830       0.73557850
    87  H          0.12680000       0.74420000       0.68240000
    88  H          0.87320000       0.25580000       0.31760000
    89  H          0.18470000       0.62360000       0.54160000
    90  H          0.81530000       0.37640000       0.45840000
    91  H          0.56160000       0.79870000       0.40530000
    92  H          0.43840000       0.20130000       0.59470000
    93  H          0.48920000       0.91440000       0.55030000
    94  H          0.51080000       0.08560000       0.44970000
    95  H          0.35640000       0.47540000       0.44560000
    96  H          0.64360000       0.52460000       0.55440000
    97  H          0.43420000       0.35520000       0.30460000
    98  H          0.56580000       0.64480000       0.69540000
    99  H          0.55360000       0.61250000       0.11470000
   100  H          0.44640000       0.38750000       0.88530000
   101  H          0.49410000       0.73870000       0.25150000
   102  H          0.50590000       0.26130000       0.74850000
   103  N          0.30112000       0.84138140       0.62856120
   104  N          0.69888000       0.15861860       0.37143880
   105  N          0.50282000       0.47146130       0.19670120
   106  N          0.49718000       0.52853870       0.80329880
   107  C          0.82962000       0.82251170       0.57580150
   108  C          0.17038000       0.17748830       0.42419850
   109  C          0.75403000       0.84181190       0.76313160
   110  C          0.24597000       0.15818810       0.23686840
   111  C          0.81573000       0.01091190       0.64852190
   112  C          0.18427000      -0.01091190       0.35147810
   113  H          0.85890000       0.85800000       0.50900000
   114  H          0.14110000       0.14200000       0.49100000
   115  H          0.75050000       0.75890000       0.76030000
   116  H          0.24950000       0.24110000       0.23970000
   117  H          0.64160000       0.88340000       0.79730000
   118  H          0.35840000       0.11660000       0.20270000
   119  H          0.83910000       0.85140000       0.80270000
   120  H          0.16090000       0.14860000       0.19730000
   121  H          0.84050000       0.03420000       0.57470000
   122  H          0.15950000       0.96580000       0.42530000
   123  H          0.90880000       0.02210000       0.68090000
   124  H          0.09120000       0.97790000       0.31910000
   125  H          0.70880000       0.05850000       0.68360000
   126  H          0.29120000       0.94150000       0.31640000
   127  N          0.79962000       0.88882140       0.65804120
   128  N          0.20038000       0.11117860       0.34195880
   129  O          0.82214180       0.71752120       0.57972100
   130  O          0.17785820       0.28247880       0.42027900
