data_EHESUF
_symmetry_space_group_name_H-M    'P1'
_symmetry_Int_Tables_number       1
loop_
_symmetry_equiv_pos_site_id
_symmetry_equiv_pos_as_xyz
1 x,y,z
_cell_length_a                   13.5164
_cell_length_b                   9.6692
_cell_length_c                   14.4514
_cell_angle_alpha                90.0
_cell_angle_beta                 99.0001
_cell_angle_gamma                90.0
loop_
_atom_site_label
_atom_site_type_symbol
_atom_site_fract_x
_atom_site_fract_y
_atom_site_fract_z
     1  Br         0.43008600       0.84204700       0.18142500
     2  Br         0.06991400       0.34204700       0.31857500
     3  Br         0.56991400       0.15795300       0.81857500
     4  Br         0.93008600       0.65795300       0.68142500
     5  Br         0.24408500       0.61052700       0.18383500
     6  Br         0.25591500       0.11052700       0.31616500
     7  Br         0.75591500       0.38947300       0.81616500
     8  Br         0.74408500       0.88947300       0.68383500
     9  O          0.50574000       0.14915000       0.31953000
    10  O         -0.00574000       0.64915000       0.18047000
    11  O          0.49426000       0.85085000       0.68047000
    12  O          0.00574000       0.35085000       0.81953000
    13  O          0.75414000       0.44825000       0.30923000
    14  O          0.74586000       0.94825000       0.19077000
    15  O          0.24586000       0.55175000       0.69077000
    16  O          0.25414000       0.05175000       0.80923000
    17  O          0.64613000       0.27605000       0.32473000
    18  O          0.85387000       0.77605000       0.17527000
    19  O          0.35387000       0.72395000       0.67527000
    20  O          0.14613000       0.22395000       0.82473000
    21  C          0.49785000       0.39076000       0.27314000
    22  C          0.00215000       0.89076000       0.22686000
    23  C          0.50215000       0.60924000       0.72686000
    24  C         -0.00215000       0.10924000       0.77314000
    25  C          0.57465000       0.48426000       0.27214000
    26  C          0.92535000       0.98426000       0.22786000
    27  C          0.42535000       0.51574000       0.72786000
    28  C          0.07465000       0.01574000       0.77214000
    29  C          0.55615000       0.61996000       0.24414000
    30  C          0.94385000       0.11996000       0.25586000
    31  C          0.44385000       0.38004000       0.75586000
    32  C          0.05615000       0.88004000       0.74414000
    33  H          0.60910000       0.68420000       0.24300000
    34  H          0.89090000       0.18420000       0.25700000
    35  H          0.39090000       0.31580000       0.75700000
    36  H          0.10910000       0.81580000       0.74300000
    37  C          0.45675000       0.65786000       0.21764000
    38  C          0.04325000       0.15786000       0.28236000
    39  C          0.54325000       0.34214000       0.78236000
    40  C          0.95675000       0.84214000       0.71764000
    41  C          0.37865000       0.56186000       0.21834000
    42  C          0.12135000       0.06186000       0.28166000
    43  C          0.62135000       0.43814000       0.78166000
    44  C          0.87865000       0.93814000       0.71834000
    45  C          0.40035000       0.42666000       0.24624000
    46  C          0.09965000       0.92666000       0.25376000
    47  C          0.59965000       0.57334000       0.75376000
    48  C          0.90035000       0.07334000       0.74624000
    49  H          0.34830000       0.36050000       0.24650000
    50  H          0.15170000       0.86050000       0.25350000
    51  H          0.65170000       0.63950000       0.75350000
    52  H          0.84830000       0.13950000       0.74650000
    53  C          0.54225000       0.25718000       0.30654000
    54  C          0.95775000       0.75718000       0.19346000
    55  C          0.45775000       0.74282000       0.69346000
    56  C          0.04225000       0.24282000       0.80654000
    57  C          0.67026000       0.41217000       0.30274000
    58  C          0.82974000       0.91217000       0.19726000
    59  C          0.32974000       0.58783000       0.69726000
    60  C          0.17026000       0.08783000       0.80274000
    61  C          0.57515000       0.17307000       0.08904000
    62  C          0.92485000       0.67307000       0.41096000
    63  C          0.42485000       0.82693000       0.91096000
    64  C          0.07515000       0.32693000       0.58904000
    65  H          0.59510000       0.08450000       0.11380000
    66  H          0.90490000       0.58450000       0.38620000
    67  H          0.40490000       0.91550000       0.88620000
    68  H          0.09510000       0.41550000       0.61380000
    69  C          0.64455000       0.28047000       0.09544000
    70  C          0.85545000       0.78047000       0.40456000
    71  C          0.35545000       0.71953000       0.90456000
    72  C          0.14455000       0.21953000       0.59544000
    73  H          0.71180000       0.26470000       0.12380000
    74  H          0.78820000       0.76470000       0.37620000
    75  H          0.28820000       0.73530000       0.87620000
    76  H          0.21180000       0.23530000       0.62380000
    77  C          0.61565000       0.41037000       0.06024000
    78  C          0.88435000       0.91037000       0.43976000
    79  C          0.38435000       0.58963000       0.93976000
    80  C          0.11565000       0.08963000       0.56024000
    81  C          0.68405000       0.52547000       0.06714000
    82  C          0.81595000       0.02547000       0.43286000
    83  C          0.31595000       0.47453000       0.93286000
    84  C          0.18405000       0.97453000       0.56714000
    85  H          0.75130000       0.51200000       0.09630000
    86  H          0.74870000       0.01200000       0.40370000
    87  H          0.24870000       0.48800000       0.90370000
    88  H          0.25130000      -0.01200000       0.59630000
    89  C          0.65525000       0.65147000       0.03324000
    90  C          0.84475000       0.15147000       0.46676000
    91  C          0.34475000       0.34853000       0.96676000
    92  C          0.15525000       0.84853000       0.53324000
    93  H          0.70270000       0.72460000       0.03890000
    94  H          0.79730000       0.22460000       0.46110000
    95  H          0.29730000       0.27540000       0.96110000
    96  H          0.20270000       0.77540000       0.53890000
    97  C          0.55605000       0.67686000       0.98956000
    98  C          0.94395000       0.17686000       0.51044000
    99  C          0.44395000       0.32314000       0.01044000
   100  C          0.05605000       0.82314000       0.48956000
   101  C          0.47795000       0.19457000       0.04704000
   102  C          0.02205000       0.69457000       0.45296000
   103  C          0.52205000       0.80543000       0.95296000
   104  C          0.97795000       0.30543000       0.54704000
   105  H          0.43200000       0.11940000       0.04270000
   106  H          0.06800000       0.61940000       0.45730000
   107  H          0.56800000       0.88060000       0.95730000
   108  H          0.93200000       0.38060000       0.54270000
   109  C          0.51565000       0.43356000       0.01784000
   110  C          0.98435000       0.93356000       0.48216000
   111  C          0.48435000       0.56644000       0.98216000
   112  C          0.01565000       0.06644000       0.51784000
   113  C          0.52666000       0.15377000       0.56754000
   114  C          0.97334000       0.65377000       0.93246000
   115  C          0.47334000       0.84623000       0.43246000
   116  C          0.02666000       0.34623000       0.06754000
   117  H          0.53380000       0.05940000       0.58590000
   118  H          0.96620000       0.55940000       0.91410000
   119  H          0.46620000       0.94060000       0.41410000
   120  H          0.03380000       0.44060000       0.08590000
   121  C          0.60905000       0.23427000       0.57234000
   122  C          0.89095000       0.73427000       0.92766000
   123  C          0.39095000       0.76573000       0.42766000
   124  C          0.10905000       0.26573000       0.07234000
   125  H          0.67320000       0.19650000       0.59450000
   126  H          0.82680000       0.69650000       0.90550000
   127  H          0.32680000       0.80350000       0.40550000
   128  H          0.17320000       0.30350000       0.09450000
   129  C          0.60005000       0.37326000       0.54484000
   130  C          0.89995000       0.87326000       0.95516000
   131  C          0.39995000       0.62674000       0.45516000
   132  C          0.10005000       0.12674000       0.04484000
   133  C          0.68605000       0.46357000       0.55004000
   134  C          0.81395000       0.96357000       0.94996000
   135  C          0.31395000       0.53643000       0.44996000
   136  C          0.18605000       0.03643000       0.05004000
   137  H          0.75090000       0.42780000       0.57210000
   138  H          0.74910000       0.92780000       0.92790000
   139  H          0.24910000       0.57220000       0.42790000
   140  H          0.25090000       0.07220000       0.07210000
   141  C          0.67605000       0.59597000       0.52454000
   142  C          0.82395000       0.09597000       0.97546000
   143  C          0.32395000       0.40403000       0.47546000
   144  C          0.17605000       0.90403000       0.02454000
   145  H          0.73420000       0.65220000       0.52860000
   146  H          0.76580000       0.15220000       0.97140000
   147  H          0.26580000       0.34780000       0.47140000
   148  H          0.23420000       0.84780000       0.02860000
   149  C          0.58095000       0.65516000       0.49144000
   150  C          0.91905000       0.15516000       0.00856000
   151  C          0.41905000       0.34484000       0.50856000
   152  C          0.08095000       0.84484000      -0.00856000
   153  C          0.43236000       0.20607000       0.53624000
   154  C          0.06764000       0.70607000       0.96376000
   155  C          0.56764000       0.79393000       0.46376000
   156  C          0.93236000       0.29393000       0.03624000
   157  H          0.37560000       0.14730000       0.53340000
   158  H          0.12440000       0.64730000       0.96660000
   159  H          0.62440000       0.85270000       0.46660000
   160  H          0.87560000       0.35270000       0.03340000
   161  C          0.50565000       0.42806000       0.51384000
   162  C         -0.00565000       0.92806000       0.98616000
   163  C          0.49435000       0.57194000       0.48616000
   164  C          0.00565000       0.07194000       0.01384000
