data_EHUQII
_symmetry_space_group_name_H-M    'P1'
_symmetry_Int_Tables_number       1
loop_
_symmetry_equiv_pos_site_id
_symmetry_equiv_pos_as_xyz
1 x,y,z
_cell_length_a                   4.96533
_cell_length_b                   13.67038
_cell_length_c                   20.353311
_cell_angle_alpha                90.0
_cell_angle_beta                 95.9493
_cell_angle_gamma                90.0
loop_
_atom_site_label
_atom_site_type_symbol
_atom_site_fract_x
_atom_site_fract_y
_atom_site_fract_z
     1  N          0.31895000       0.65754170       0.00044110
     2  N          0.68105000       0.15754170      -0.00044110
     3  N          0.11085000       0.78052180       0.13845110
     4  N          0.88915000       0.28052180       0.86154890
     5  H          0.27980000       0.79410000       0.15290000
     6  H          0.72020000       0.29410000       0.84710000
     7  C          0.05716000       0.71782000       0.08128140
     8  C          0.94284000       0.21782000       0.91871860
     9  H          0.86400000       0.72640000       0.06280000
    10  H          0.13600000       0.22640000       0.93720000
    11  C          0.10906000       0.61042000       0.09441140
    12  C          0.89094000       0.11042000       0.90558860
    13  H          0.25810000       0.60280000       0.13100000
    14  H          0.74190000       0.10280000       0.86900000
    15  C          0.20246000       0.57072000       0.03020140
    16  C          0.79754000       0.07072000       0.96979860
    17  H          0.34030000       0.51880000       0.03930000
    18  H          0.65970000       0.01880000       0.96070000
    19  H          0.04800000       0.54410000       0.00090000
    20  H          0.95200000       0.04410000      -0.00090000
    21  C          0.24076000       0.74402000       0.02762130
    22  C          0.75924000       0.24402000       0.97237870
    23  C          0.48436000       0.64692000       0.94814870
    24  C          0.51564000       0.14692000       0.05185130
    25  C          0.51486000       0.55462000       0.92058860
    26  C          0.48514000       0.05462000       0.07941140
    27  H          0.41960000       0.50020000       0.93570000
    28  H          0.58040000       0.00020000       0.06430000
    29  C          0.68426000       0.54212000       0.87104860
    30  C          0.31574000       0.04212000       0.12895140
    31  H          0.70520000       0.47890000       0.85290000
    32  H          0.29480000       0.97890000       0.14710000
    33  C          0.82126000       0.61962000       0.84800860
    34  C          0.17874000       0.11962000       0.15199140
    35  H          0.93690000       0.61000000       0.81420000
    36  H          0.06310000       0.11000000       0.18580000
    37  C          0.79106000       0.71272000       0.87413860
    38  C          0.20894000       0.21272000       0.12586140
    39  C          0.62136000       0.72632000       0.92399870
    40  C          0.37864000       0.22632000       0.07600130
    41  H          0.59900000       0.78980000       0.94160000
    42  H          0.40100000       0.28980000       0.05840000
    43  C          0.93186000       0.79982000       0.85103860
    44  C          0.06814000       0.29982000       0.14896140
    45  C          0.25147000       0.85933000       0.78269820
    46  C          0.74853000       0.35933000       0.21730180
    47  H          0.36640000       0.88720000       0.82010000
    48  H          0.63360000       0.38720000       0.17990000
    49  H          0.12680000       0.90960000       0.76330000
    50  H          0.87320000       0.40960000       0.23670000
    51  H          0.36510000       0.83600000       0.74930000
    52  H          0.63490000       0.33600000       0.25070000
    53  C          0.91164000       0.81862000       0.17006130
    54  C          0.08836000       0.31862000       0.82993870
    55  C          0.81634000       0.92712000       0.25444140
    56  C          0.18366000       0.42712000       0.74555860
    57  H          0.67410000       0.88280000       0.26780000
    58  H          0.32590000       0.38280000       0.73220000
    59  H          0.72980000       0.97600000       0.22320000
    60  H          0.27020000       0.47600000       0.77680000
    61  C          0.95704000       0.97832000       0.31482140
    62  C          0.04296000       0.47832000       0.68517860
    63  H          0.11810000       0.01530000       0.30250000
    64  H          0.88190000       0.51530000       0.69750000
    65  C          0.04016000       0.91092000       0.37258140
    66  C          0.95984000       0.41092000       0.62741860
    67  C          0.22156000       0.83372000       0.37695150
    68  C          0.77844000       0.33372000       0.62304850
    69  H          0.31610000       0.81690000       0.34030000
    70  H          0.68390000       0.31690000       0.65970000
    71  C          0.26366000       0.78093000       0.43560150
    72  C          0.73634000       0.28093000       0.56439850
    73  H          0.39020000       0.72860000       0.43950000
    74  H          0.60980000       0.22860000       0.56050000
    75  C          0.11866000       0.80503000       0.48905160
    76  C          0.88134000       0.30503000       0.51094840
    77  H          0.14660000       0.76810000       0.52870000
    78  H          0.85340000       0.26810000       0.47130000
    79  C          0.93684000       0.88123000       0.48497150
    80  C          0.06316000       0.38123000       0.51502850
    81  H          0.84040000       0.89700000       0.52150000
    82  H          0.15960000       0.39700000       0.47850000
    83  C          0.89574000       0.93512000       0.42635140
    84  C          0.10426000       0.43512000       0.57364860
    85  C          0.72354000       0.02002000       0.40815140
    86  C          0.27646000       0.52002000       0.59184860
    87  C          0.54314000       0.07133000       0.44321150
    88  C          0.45686000       0.57133000       0.55678850
    89  H          0.51790000       0.05320000       0.48720000
    90  H          0.48210000       0.55320000       0.51280000
    91  C          0.40173000       0.14872000       0.41325170
    92  C          0.59827000       0.64872000       0.58674830
    93  H          0.27630000       0.18350000       0.43660000
    94  H          0.72370000       0.68350000       0.56340000
    95  C          0.44073000       0.17692000       0.34856180
    96  C          0.55927000       0.67692000       0.65143820
    97  H          0.34300000       0.23080000       0.32860000
    98  H          0.65700000       0.73080000       0.67140000
    99  C          0.62204000       0.12612000       0.31375160
   100  C          0.37796000       0.62612000       0.68624840
   101  H          0.65020000       0.14530000       0.27010000
   102  H          0.34980000       0.64530000       0.72990000
   103  C          0.76094000       0.04772000       0.34314140
   104  C          0.23906000       0.54772000       0.65685860
   105  O          0.30064000       0.82579150       0.01205100
   106  O          0.69936000       0.32579150       0.98794900
   107  O          0.87056000       0.56573170       0.11274120
   108  O          0.12944000       0.06573170       0.88725880
   109  H          0.89740000       0.50550000       0.11830000
   110  H          0.10260000       0.00550000       0.88170000
   111  O          0.90015000       0.88204170       0.87016890
   112  O          0.09985000       0.38204170       0.12983110
   113  O          0.09694000       0.77792160       0.80550900
   114  O          0.90306000       0.27792160       0.19449100
   115  O          0.67136000       0.80875170       0.15454100
   116  O          0.32864000       0.30875170       0.84545900
   117  O          0.01604000       0.87176150       0.22311900
   118  O         -0.01604000       0.37176150       0.77688100
   119  C          0.57798000       0.48733000       0.37950170
   120  C          0.42202000       0.98733000       0.62049830
   121  H          0.59500000       0.43950000       0.41360000
   122  H          0.40500000       0.93950000       0.58640000
   123  C          0.75658000       0.56463000       0.38072000
   124  C          0.24342000       0.06463000       0.61928000
   125  H          0.89590000       0.57090000       0.41610000
   126  H          0.10410000       0.07090000       0.58390000
   127  C          0.73328000       0.63273000       0.33062000
   128  C          0.26672000       0.13273000       0.66938000
   129  H          0.85560000       0.68630000       0.33200000
   130  H          0.14440000       0.18630000       0.66800000
   131  C          0.53517000       0.62403000       0.27890190
   132  C          0.46483000       0.12403000       0.72109810
   133  H          0.52440000       0.66970000       0.24360000
   134  H          0.47560000       0.16970000       0.75640000
   135  C          0.35287000       0.54903000       0.27856170
   136  C          0.64713000       0.04903000       0.72143830
   137  H          0.21000000       0.54400000       0.24390000
   138  H          0.79000000       0.04400000       0.75610000
   139  C          0.37658000       0.48023000       0.32894180
   140  C          0.62342000       0.98023000       0.67105820
   141  H          0.25110000       0.42760000       0.32810000
   142  H          0.74890000       0.92760000       0.67190000
