data_EJENEP
_symmetry_space_group_name_H-M    'P1'
_symmetry_Int_Tables_number       1
loop_
_symmetry_equiv_pos_site_id
_symmetry_equiv_pos_as_xyz
1 x,y,z
_cell_length_a                   11.7351
_cell_length_b                   12.0769
_cell_length_c                   15.61212
_cell_angle_alpha                95.42616
_cell_angle_beta                 90.18617
_cell_angle_gamma                104.63315
loop_
_atom_site_label
_atom_site_type_symbol
_atom_site_fract_x
_atom_site_fract_y
_atom_site_fract_z
     1  P          0.21216160       0.35510120       0.43374900
     2  P          0.78783840       0.64489880       0.56625100
     3  P          0.36640150       0.78943880       0.98507800
     4  P          0.63359850       0.21056120       0.01492200
     5  N          0.14394000       0.23263000       0.67623000
     6  N          0.85606000       0.76737000       0.32377000
     7  N          0.14175000       0.89537000       0.81623000
     8  N          0.85825000       0.10463000       0.18377000
     9  C          0.29206000       0.41454000       0.34263000
    10  C          0.70794000       0.58546000       0.65737000
    11  C          0.38326000       0.51005000       0.34873000
    12  C          0.61674000       0.48995000       0.65127000
    13  H          0.40910000       0.54730000       0.40280000
    14  H          0.59090000       0.45270000       0.59720000
    15  C          0.43926000       0.55395000       0.27573000
    16  C          0.56074000       0.44605000       0.72427000
    17  H          0.50330000       0.61790000       0.28090000
    18  H          0.49670000       0.38210000       0.71910000
    19  C          0.39746000       0.50055000       0.19654000
    20  C          0.60254000       0.49945000       0.80346000
    21  H          0.43120000       0.53070000       0.14720000
    22  H          0.56880000       0.46930000       0.85280000
    23  C          0.30796000       0.40485000       0.18903000
    24  C          0.69204000       0.59515000       0.81097000
    25  H          0.28260000       0.36740000       0.13490000
    26  H          0.71740000       0.63260000       0.86510000
    27  C          0.25366000       0.36214000       0.26183000
    28  C          0.74634000       0.63786000       0.73817000
    29  H          0.19050000       0.29710000       0.25600000
    30  H          0.80950000       0.70290000       0.74400000
    31  C          0.22025000       0.48394000       0.50803000
    32  C          0.77975000       0.51606000       0.49197000
    33  C          0.14456000       0.54905000       0.49044000
    34  C          0.85544000       0.45095000       0.50956000
    35  H          0.09740000       0.52970000       0.44040000
    36  H          0.90260000       0.47030000       0.55960000
    37  C          0.13706000       0.64175000       0.54484000
    38  C          0.86294000       0.35825000       0.45516000
    39  H          0.08490000       0.68500000       0.53220000
    40  H          0.91510000       0.31500000       0.46780000
    41  C          0.20766000       0.67145000       0.61974000
    42  C          0.79234000       0.32855000       0.38026000
    43  H          0.20180000       0.73360000       0.65780000
    44  H          0.79820000       0.26640000       0.34220000
    45  C          0.28486000       0.60935000       0.63653000
    46  C          0.71514000       0.39065000       0.36347000
    47  H          0.33310000       0.63000000       0.68570000
    48  H          0.66690000       0.37000000       0.31430000
    49  C          0.29236000       0.51604000       0.58143000
    50  C          0.70764000       0.48396000       0.41857000
    51  H          0.34600000       0.47410000       0.59340000
    52  H          0.65400000       0.52590000       0.40660000
    53  C          0.31436000       0.28994000       0.48483000
    54  C          0.68564000       0.71006000       0.51517000
    55  C          0.42106000       0.28174000       0.45373000
    56  C          0.57894000       0.71826000       0.54627000
    57  H          0.44520000       0.31250000       0.40240000
    58  H          0.55480000       0.68750000       0.59760000
    59  C          0.49336000       0.22994000       0.49503000
    60  C          0.50664000       0.77006000       0.50497000
    61  H          0.56600000       0.22690000       0.47260000
    62  H          0.43400000       0.77310000       0.52740000
    63  C          0.45716000       0.18195000       0.57054000
    64  C          0.54284000       0.81805000       0.42946000
    65  H          0.50560000       0.14620000       0.59890000
    66  H          0.49440000       0.85380000       0.40110000
    67  C          0.35266000       0.18664000       0.60313000
    68  C          0.64734000       0.81336000       0.39687000
    69  H          0.32970000       0.15460000       0.65420000
    70  H          0.67030000       0.84540000       0.34580000
    71  C          0.27806000       0.23844000       0.56173000
    72  C          0.72194000       0.76156000       0.43827000
    73  C          0.16346000       0.23894000       0.59693000
    74  C          0.83654000       0.76106000       0.40307000
    75  H          0.10290000       0.24390000       0.56010000
    76  H          0.89710000       0.75610000       0.43990000
    77  C          0.03006000       0.23404000       0.70433000
    78  C          0.96994000       0.76596000       0.29567000
    79  C          0.97444000       0.31285000       0.68293000
    80  C          0.02556000       0.68715000       0.31707000
    81  H          0.00900000       0.36640000       0.64550000
    82  H         -0.00900000       0.63360000       0.35450000
    83  C          0.86383000       0.31375000       0.71754000
    84  C          0.13617000       0.68625000       0.28246000
    85  H          0.82650000       0.36850000       0.70200000
    86  H          0.17350000       0.63150000       0.29800000
    87  C          0.80974000       0.23755000       0.77273000
    88  C          0.19026000       0.76245000       0.22727000
    89  H          0.73650000       0.23970000       0.79420000
    90  H          0.26350000       0.76030000       0.20580000
    91  C          0.86784000       0.15345000       0.79723000
    92  C          0.13216000       0.84655000       0.20277000
    93  C          0.97744000       0.15214000       0.76223000
    94  C          0.02256000       0.84786000       0.23777000
    95  C          0.03285000       0.06834000       0.78193000
    96  C          0.96715000       0.93166000       0.21807000
    97  H          0.10430000       0.06590000       0.75730000
    98  H          0.89570000       0.93410000       0.24270000
    99  C          0.98235000      -0.01184000       0.83773000
   100  C          0.01765000       0.01184000       0.16227000
   101  C          0.87415000      -0.00745000       0.87633000
   102  C          0.12585000       0.00745000       0.12367000
   103  C          0.81994000       0.07585000       0.85403000
   104  C          0.18006000       0.92415000       0.14597000
   105  H          0.74860000       0.07900000       0.87850000
   106  H          0.25140000       0.92100000       0.12150000
   107  C          0.82624000       0.91435000       0.93813000
   108  C          0.17376000       0.08565000       0.06187000
   109  H          0.75680000       0.91810000       0.96520000
   110  H          0.24320000       0.08190000       0.03480000
   111  C          0.88404000       0.83425000       0.95663000
   112  C          0.11596000       0.16575000       0.04337000
   113  H          0.85340000       0.78360000      -0.00300000
   114  H          0.14660000       0.21640000       0.00300000
   115  C         -0.01146000       0.82656000       0.91623000
   116  C          0.01146000       0.17344000       0.08377000
   117  H          0.02440000       0.76950000       0.92890000
   118  H          0.97560000       0.23050000       0.07110000
   119  C          0.03876000       0.90125000       0.85863000
   120  C          0.96124000       0.09875000       0.14137000
   121  C          0.22656000       0.88456000       0.86283000
   122  C          0.77344000       0.11544000       0.13717000
   123  H          0.21570000       0.88300000       0.92170000
   124  H          0.78430000       0.11700000       0.07830000
   125  C          0.33795000       0.87456000       0.83003000
   126  C          0.66205000       0.12544000       0.16997000
   127  C          0.37646000       0.91216000       0.74943000
   128  C          0.62354000       0.08784000       0.25057000
   129  H          0.32680000       0.94080000       0.71590000
   130  H          0.67320000       0.05920000       0.28410000
   131  C          0.48306000       0.90756000       0.71984000
   132  C          0.51694000       0.09244000       0.28016000
   133  H          0.50560000       0.93160000       0.66610000
   134  H          0.49440000       0.06840000       0.33390000
   135  C          0.55836000       0.86736000       0.76903000
   136  C          0.44164000       0.13264000       0.23097000
   137  H          0.63260000       0.86550000       0.74930000
   138  H          0.36740000       0.13450000       0.25070000
   139  C          0.52276000       0.82946000       0.84843000
   140  C          0.47724000       0.17054000       0.15157000
   141  H          0.57340000       0.80090000       0.88080000
   142  H          0.42660000       0.19910000       0.11920000
   143  C          0.41505000       0.83306000       0.88043000
   144  C          0.58495000       0.16694000       0.11957000
   145  C          0.49245000       0.75826000       0.03423000
   146  C          0.50755000       0.24174000       0.96577000
   147  C          0.53585000       0.66406000       0.01123000
   148  C          0.46415000       0.33594000       0.98877000
   149  H          0.50120000       0.61260000       0.96450000
   150  H          0.49880000       0.38740000       0.03550000
   151  C          0.62935000       0.64436000       0.05583000
   152  C          0.37065000       0.35564000       0.94417000
   153  H          0.65740000       0.58030000       0.03940000
   154  H          0.34260000       0.41970000       0.96060000
   155  C          0.68035000       0.71956000       0.12403000
   156  C          0.31965000       0.28044000       0.87597000
   157  H          0.74260000       0.70640000       0.15510000
   158  H          0.25740000       0.29360000       0.84490000
   159  C          0.63985000       0.81426000       0.14673000
   160  C          0.36015000       0.18574000       0.85327000
   161  H          0.67550000       0.86610000       0.19290000
   162  H          0.32450000       0.13390000       0.80710000
   163  C          0.54685000       0.83406000       0.10213000
   164  C          0.45315000       0.16594000       0.89787000
   165  H          0.52050000       0.89930000       0.11810000
   166  H          0.47950000       0.10070000       0.88190000
   167  C          0.26825000       0.64756000       0.95683000
   168  C          0.73175000       0.35244000       0.04317000
   169  C          0.23806000       0.59975000       0.87343000
   170  C          0.76194000       0.40025000       0.12657000
   171  H          0.27230000       0.63960000       0.82800000
   172  H          0.72770000       0.36040000       0.17200000
   173  C          0.15816000       0.49455000       0.85584000
   174  C          0.84184000       0.50545000       0.14416000
   175  H          0.13960000       0.46350000       0.79910000
   176  H          0.86040000       0.53650000       0.20090000
   177  C          0.10666000       0.43685000       0.92194000
   178  C          0.89334000       0.56315000       0.07806000
   179  H          0.05180000       0.36630000       0.91040000
   180  H          0.94820000       0.63370000       0.08960000
   181  C          0.13506000       0.48205000       0.00564000
   182  C          0.86494000       0.51795000      -0.00564000
   183  H          0.10010000       0.44180000       0.05060000
   184  H          0.89990000       0.55820000       0.94940000
   185  C          0.21466000       0.58625000       0.02253000
   186  C          0.78534000       0.41375000       0.97747000
   187  H          0.23290000       0.61660000       0.07930000
   188  H          0.76710000       0.38340000       0.92070000
   189  C          0.88279000       0.03027000       0.51957000
   190  C          0.11721000       0.96973000       0.48043000
   191  H          0.81120000       0.04730000       0.53190000
   192  H          0.18880000       0.95270000       0.46810000
   193  C          0.94471100       0.97117000       0.57075000
   194  C          0.05528900       0.02883000       0.42925000
   195  H          0.91010000       0.94930000       0.62200000
   196  H          0.08990000       0.05070000       0.37800000
   197  C          0.04891100       0.94246000       0.55367000
   198  C          0.95108900       0.05754000       0.44633000
   199  H          0.07660000       0.90180000       0.59320000
   200  H          0.92340000       0.09820000       0.40680000
