data_EJIZIH
_symmetry_space_group_name_H-M    'P1'
_symmetry_Int_Tables_number       1
loop_
_symmetry_equiv_pos_site_id
_symmetry_equiv_pos_as_xyz
1 x,y,z
_cell_length_a                   8.15764
_cell_length_b                   13.169913
_cell_length_c                   15.48419
_cell_angle_alpha                78.7107
_cell_angle_beta                 80.7825
_cell_angle_gamma                88.2716
loop_
_atom_site_label
_atom_site_type_symbol
_atom_site_fract_x
_atom_site_fract_y
_atom_site_fract_z
     1  I          0.28174200       0.84109014       0.18075511
     2  I          0.71825800       0.15890986       0.81924489
     3  I          0.65035200       0.68024615       0.25371012
     4  I          0.34964800       0.31975385       0.74628988
     5  S          0.20634800       0.98360500       0.55957400
     6  S          0.79365200       0.01639500       0.44042600
     7  S          0.48087800       0.85494500       0.62131400
     8  S          0.51912200       0.14505500       0.37868600
     9  S          0.25982800       0.89523500       0.37851400
    10  S          0.74017200       0.10476500       0.62148600
    11  S          0.53977800       0.76821500       0.43553400
    12  S          0.46022200       0.23178500       0.56446600
    13  S          0.12314800       0.07185500       0.72174500
    14  S          0.87685200       0.92814500       0.27825500
    15  S          0.45136800       0.91851600       0.79462400
    16  S          0.54863200       0.08148400       0.20537600
    17  C          0.36183000       0.89492000       0.53700160
    18  C          0.63817000       0.10508000       0.46299840
    19  C          0.38663000       0.85744190       0.45990160
    20  C          0.61337000       0.14255810       0.54009840
    21  C          0.25183000       0.99134190       0.66448160
    22  C          0.74817000       0.00865810       0.33551840
    23  C          0.37833000       0.93220190       0.69286160
    24  C          0.62167000       0.06779810       0.30713840
    25  C          0.36853000       0.82709190       0.30239150
    26  C          0.63147000       0.17290810       0.69760850
    27  C          0.49643000       0.76922000       0.32838160
    28  C          0.50357000       0.23078000       0.67161840
    29  C          0.13703000       0.00592000       0.83487170
    30  C          0.86297000      -0.00592000       0.16512830
    31  H          0.06780000       0.04170000       0.87640000
    32  H          0.93220000       0.95830000       0.12360000
    33  H          0.09430000       0.93600000       0.84390000
    34  H          0.90570000       0.06400000       0.15610000
    35  C          0.31333000       0.00102000       0.85481170
    36  C          0.68667000      -0.00102000       0.14518830
    37  H          0.31050000       0.97610000       0.91830000
    38  H          0.68950000       0.02390000       0.08170000
    39  H          0.35890000       0.07060000       0.84030000
    40  H          0.64110000       0.92940000       0.15970000
    41  I          0.20371200       0.66896414       0.81759011
    42  I          0.79628800       0.33103586       0.18240989
    43  I          0.84919800       0.82487114       0.73683412
    44  I          0.15080200       0.17512886       0.26316588
    45  S          0.30009800       0.51470600       0.43816400
    46  S          0.69990200       0.48529400       0.56183600
    47  S          0.02482800       0.64198500       0.37513400
    48  S          0.97517200       0.35801500       0.62486600
    49  S          0.23930800       0.60258500       0.62068400
    50  S          0.76069200       0.39741500       0.37931600
    51  S          0.96142200       0.72950500       0.55939400
    52  S          0.03857800       0.27049500       0.44060600
    53  S          0.38693900       0.42600600       0.27623500
    54  S          0.61306100       0.57399400       0.72376500
    55  S          0.05847900       0.57635600       0.20203500
    56  S          0.94152100       0.42364400       0.79796500
    57  C          0.14293000       0.60235190       0.45990160
    58  C          0.85707000       0.39764810       0.54009840
    59  C          0.11653000       0.63924190       0.53719160
    60  C          0.88347000       0.36075810       0.46280840
    61  C          0.25703000       0.50712000       0.33239160
    62  C          0.74297000       0.49288000       0.66760840
    63  C          0.13043000       0.56522000       0.30339160
    64  C          0.86957000       0.43478000       0.69660840
    65  C          0.12933000       0.67412000       0.69443160
    66  C          0.87067000       0.32588000       0.30556840
    67  C          0.00273000       0.73128190       0.66622160
    68  C         -0.00273000       0.26871810       0.33377840
    69  C          0.37203000       0.49033000       0.16208180
    70  C          0.62797000       0.50967000       0.83791820
    71  H          0.41760000       0.55960000       0.15180000
    72  H          0.58240000       0.44040000       0.84820000
    73  H          0.43940000       0.45270000       0.12130000
    74  H          0.56060000       0.54730000       0.87870000
    75  C          0.19994000       0.49773000       0.14154190
    76  C          0.80006000       0.50227000       0.85845810
    77  H          0.15430000       0.42830000       0.15330000
    78  H          0.84570000       0.57170000       0.84670000
    79  H          0.20490000       0.52510000       0.07830000
    80  H          0.79510000       0.47490000       0.92170000
    81  C          0.95177000       0.72592000       0.00781170
    82  C          0.04823000       0.27408000      -0.00781170
    83  H          0.94550000       0.65480000       0.01150000
    84  H          0.05450000       0.34520000       0.98850000
    85  C          0.81537000       0.78002000       0.00042170
    86  C          0.18463000       0.21998000      -0.00042170
    87  H          0.81800000       0.85110000      -0.00200000
    88  H          0.18200000       0.14890000       0.00200000
    89  C          0.11723000       0.77072000       0.01080170
    90  C          0.88277000       0.22928000       0.98919830
    91  O          0.24332000       0.71831160       0.98729880
    92  O          0.75668000       0.28168840       0.01270120
    93  O          0.12112000       0.85421160       0.03686130
    94  O          0.87888000       0.14578840       0.96313870
    95  C          0.65567000       0.73003000      -0.00415180
    96  C          0.34433000       0.26997000       0.00415180
    97  O          0.53558000       0.79832160       0.98397870
    98  O          0.46442000       0.20167840       0.01602130
    99  H          0.44820000       0.76800000       0.98650000
   100  H          0.55180000       0.23200000       0.01350000
   101  O          0.63967000       0.63834190       0.00338170
   102  O          0.36033000       0.36165810      -0.00338170
