data_EJOGUH01
_symmetry_space_group_name_H-M    'P1'
_symmetry_Int_Tables_number       1
loop_
_symmetry_equiv_pos_site_id
_symmetry_equiv_pos_as_xyz
1 x,y,z
_cell_length_a                   10.37192
_cell_length_b                   11.50823
_cell_length_c                   12.29173
_cell_angle_alpha                110.47501
_cell_angle_beta                 90.54401
_cell_angle_gamma                93.31101
loop_
_atom_site_label
_atom_site_type_symbol
_atom_site_fract_x
_atom_site_fract_y
_atom_site_fract_z
     1  C          0.30743000       0.04703000       0.55073000
     2  C          0.69257000       0.95297000       0.44927000
     3  C          0.35213000       0.80423000       0.26242000
     4  C          0.64787000       0.19577000       0.73758000
     5  C          0.36643000       0.79973000       0.46652000
     6  C          0.63357000       0.20027000       0.53348000
     7  C          0.29093000       0.04903000       0.35193000
     8  C          0.70907000       0.95097000       0.64807000
     9  C          0.34573000       0.85993000       0.38542000
    10  C          0.65427000       0.14007000       0.61458000
    11  C          0.32953000      -0.01297000       0.62483000
    12  C          0.67047000       0.01297000       0.37517000
    13  C          0.31473000      -0.01367000       0.42943000
    14  C          0.68527000       0.01367000       0.57057000
    15  C          0.29823000      -0.00887000       0.23553000
    16  C          0.70177000       0.00887000       0.76447000
    17  C          0.33013000       0.86783000       0.19033000
    18  C          0.66987000       0.13217000       0.80967000
    19  C          0.35923000       0.86273000       0.58323000
    20  C          0.64077000       0.13727000       0.41677000
    21  N          0.39392000       0.66912000       0.42140190
    22  N          0.60608000       0.33088000       0.57859810
    23  N          0.38163000       0.67332000       0.21422000
    24  N          0.61837000       0.32668000       0.78578000
    25  C          0.51993000       0.64563000       0.46273000
    26  C          0.48007000       0.35437000       0.53727000
    27  C          0.29034000       0.58863000       0.44473000
    28  C          0.70966000       0.41137000       0.55527000
    29  C          0.26846000       0.59444000       0.14534000
    30  C          0.73154000       0.40556000       0.85466000
    31  C          0.50206000       0.65566000       0.14985000
    32  C          0.49794000       0.34434000       0.85015000
    33  H          0.28230000       0.12930000       0.57930000
    34  H          0.71770000       0.87070000       0.42070000
    35  H          0.53630000       0.55330000       0.41230000
    36  H          0.46370000       0.44670000       0.58770000
    37  H          0.20740000       0.60530000       0.41730000
    38  H          0.79260000       0.39470000       0.58270000
    39  H          0.30430000       0.50330000       0.40330000
    40  H          0.69570000       0.49670000       0.59670000
    41  H          0.37030000       0.81730000       0.62930000
    42  H          0.62970000       0.18270000       0.37070000
    43  H          0.33830000       0.83130000       0.11030000
    44  H          0.66170000       0.16870000       0.88970000
    45  H          0.27130000       0.12930000       0.38230000
    46  H          0.72870000       0.87070000       0.61770000
    47  H          0.51940000       0.57440000       0.13540000
    48  H          0.48060000       0.42560000       0.86460000
    49  H          0.58240000       0.70140000       0.44130000
    50  H          0.41760000       0.29860000       0.55870000
    51  H          0.28940000       0.60730000       0.53040000
    52  H          0.71060000       0.39270000       0.46960000
    53  H          0.32740000       0.02340000       0.69630000
    54  H          0.67260000       0.97660000       0.30370000
    55  H          0.28440000       0.03040000       0.18530000
    56  H          0.71560000       0.96960000       0.81470000
    57  H          0.39240000       0.65240000       0.29640000
    58  H          0.60760000       0.34760000       0.70360000
    59  H          0.51940000       0.66140000       0.54540000
    60  H          0.48060000       0.33860000       0.45460000
    61  H          0.17770000       0.60860000       0.19860000
    62  H          0.82230000       0.39140000       0.80140000
    63  H          0.28640000       0.51650000       0.12540000
    64  H          0.71360000       0.48350000       0.87460000
    65  H          0.26440000       0.62040000       0.08340000
    66  H          0.73560000       0.37960000       0.91660000
    67  H          0.56650000       0.71350000       0.20150000
    68  H          0.43350000       0.28650000       0.79850000
    69  H          0.49150000       0.67340000       0.08150000
    70  H          0.50850000       0.32660000       0.91850000
    71  I          0.95392800       0.25111300       0.04021200
    72  I          0.04607200       0.74888700       0.95978800
    73  O          0.43912000       0.40792000       0.23342000
    74  O          0.56088000       0.59208000       0.76658000
    75  O          0.57702000       0.26562000       0.15383000
    76  O          0.42298000       0.73438000       0.84617000
    77  C          0.16224000       0.07243000       0.94097000
    78  C          0.83776000       0.92757000       0.05903000
    79  C          0.38573000       0.11073000       0.00103000
    80  C          0.61427000       0.88927000      -0.00103000
    81  C          0.23553000       0.25873000       0.09743000
    82  C          0.76447000       0.74127000       0.90257000
    83  C          0.36093000       0.22273000       0.08562000
    84  C          0.63907000       0.77727000       0.91438000
    85  C          0.46613000       0.30633000       0.16523000
    86  C          0.53387000       0.69367000       0.83477000
    87  C          0.13823000       0.18573000       0.02403000
    88  C          0.86177000       0.81427000       0.97597000
    89  C          0.28664000       0.03563000       0.93067000
    90  C          0.71336000       0.96437000       0.06933000
    91  H          0.21730000       0.32930000       0.15430000
    92  H          0.78270000       0.67070000       0.84570000
    93  H          0.30940000       0.96060000       0.88070000
    94  H          0.69060000       0.03940000       0.11930000
    95  H          0.47030000       0.08630000      -0.00830000
    96  H          0.52970000       0.91370000       0.00830000
    97  H          0.08840000       0.02230000       0.89470000
    98  H          0.91160000       0.97770000       0.10530000
    99  I          0.00659200       0.74890200       0.65586919
   100  I         -0.00659200       0.25109800       0.34413081
   101  O          0.73702000       0.42923000       0.27272000
   102  O          0.26298000       0.57077000       0.72728000
   103  O          0.75103000       0.49453000       0.12332000
   104  O          0.24897000       0.50547000       0.87668000
   105  C          0.88743000       0.63043000       0.41443000
   106  C          0.11257000       0.36957000       0.58557000
   107  C          0.86013000       0.61573000       0.29973000
   108  C          0.13987000       0.38427000       0.70027000
   109  C          0.77673000       0.50674000       0.22363000
   110  C          0.22327000       0.49326000       0.77637000
   111  C          0.90973000       0.70464000       0.25633000
   112  C          0.09027000       0.29536000       0.74367000
   113  C          0.96433000       0.73273000       0.48403000
   114  C          0.03567000       0.26727000       0.51597000
   115  C          0.01423000       0.82054000       0.44103000
   116  C         -0.01423000       0.17946000       0.55897000
   117  C         -0.01356000       0.80554000       0.32634000
   118  C          0.01356000       0.19446000       0.67366000
   119  H          0.06030000       0.88930000       0.49030000
   120  H          0.93970000       0.11070000       0.50970000
   121  H          0.01740000       0.87240000       0.29530000
   122  H          0.98260000       0.12760000       0.70470000
   123  H          0.85530000       0.57030000       0.44430000
   124  H          0.14470000       0.42970000       0.55570000
   125  H          0.88940000       0.69130000       0.17830000
   126  H          0.11060000       0.30870000       0.82170000
   127  H          0.66850000       0.35450000       0.21550000
   128  H          0.33150000       0.64550000       0.78450000
