data_EJOKAR
_symmetry_space_group_name_H-M    'P1'
_symmetry_Int_Tables_number       1
loop_
_symmetry_equiv_pos_site_id
_symmetry_equiv_pos_as_xyz
1 x,y,z
_cell_length_a                   10.31293
_cell_length_b                   11.62754
_cell_length_c                   12.02635
_cell_angle_alpha                76.8992
_cell_angle_beta                 67.7812
_cell_angle_gamma                65.5022
loop_
_atom_site_label
_atom_site_type_symbol
_atom_site_fract_x
_atom_site_fract_y
_atom_site_fract_z
     1  O          0.68819120       0.22888110       0.44828900
     2  O          0.31180880       0.77111890       0.55171100
     3  O          0.63002110       0.21973100       0.29071900
     4  O          0.36997890       0.78026900       0.70928100
     5  C          0.87413150       0.27864130       0.12808120
     6  C          0.12586850       0.72135870       0.87191880
     7  C          0.92764160       0.30546130       0.29688140
     8  C          0.07235840       0.69453870       0.70311860
     9  C          0.84199140       0.27237120       0.25275120
    10  C          0.15800860       0.72762880       0.74724880
    11  C          0.71119150       0.23629120       0.33895120
    12  C          0.28880850       0.76370880       0.66104880
    13  C          0.04244170       0.34617140       0.21809150
    14  C          0.95755830       0.65382860       0.78190850
    15  C          0.98790170       0.32025140       0.04990140
    16  C          0.01209830       0.67974860       0.95009860
    17  C          0.07138180       0.35415140       0.09462150
    18  C          0.92861820       0.64584860       0.90537850
    19  H          0.81311600       0.25361400       0.09921300
    20  H          0.18688400       0.74638600       0.90078700
    21  H          0.90601700       0.29771400       0.38371500
    22  H          0.09398300       0.70228600       0.61628500
    23  H          0.09961800       0.36841500       0.25241500
    24  H          0.90038200       0.63158500       0.74758500
    25  H          0.00841900       0.32741600       0.96358300
    26  H          0.99158100       0.67258400       0.03641700
    27  H          0.15020000       0.38421600       0.03911600
    28  H          0.84980000       0.61578400       0.96088400
    29  C          0.28317150       0.26234130       0.46933130
    30  C          0.71682850       0.73765870       0.53066870
    31  O          0.41534110       0.17202900       0.44674900
    32  O          0.58465890       0.82797100       0.55325100
    33  O          0.25047120       0.36049100       0.40479100
    34  O          0.74952880       0.63950900       0.59520900
    35  C          0.20387160       0.11745140       0.65031130
    36  C          0.79612840       0.88254860       0.34968870
    37  C          0.17117150       0.23608130       0.58545120
    38  C          0.82882850       0.76391870       0.41454880
    39  C          0.03437170       0.33315150       0.63170140
    40  C          0.96562830       0.66684850       0.36829860
    41  C          0.93326820       0.31173170       0.74176150
    42  C          0.06673180       0.68826830       0.25823850
    43  C          0.10087170       0.09640160       0.75945140
    44  C          0.89912830       0.90359840       0.24054860
    45  C          0.96633810       0.19381180       0.80549150
    46  C          0.03366190       0.80618820       0.19450850
    47  H          0.29591800       0.05121500       0.61901400
    48  H          0.70408200       0.94878500       0.38098600
    49  H          0.01081700       0.41401500       0.58701400
    50  H          0.98918300       0.58598500       0.41298600
    51  H          0.11941800       0.01151700       0.80551500
    52  H          0.88058200      -0.01151700       0.19448500
    53  H          0.89180000       0.18021600       0.88101700
    54  H          0.10820000       0.81978400       0.11898300
    55  H          0.50930000       0.19720000       0.37220000
    56  H          0.49070000       0.80280000       0.62780000
    57  H          0.83980000       0.38411700       0.77111600
    58  H          0.16020000       0.61588300       0.22888400
    59  C          0.57762130       0.20977120       0.88412110
    60  C          0.42237870       0.79022880       0.11587890
    61  C          0.85599170       0.06111170       0.62332140
    62  C          0.14400830       0.93888830       0.37667860
    63  C          0.62402000       0.02198160       0.67401150
    64  C          0.37598000       0.97801840       0.32598850
    65  C          0.59564170       0.43055140       0.62625140
    66  C          0.40435830       0.56944860       0.37374860
    67  C          0.38691160       0.35839160       0.67557140
    68  C          0.61308840       0.64160840       0.32442860
    69  H          0.80151900       0.90898300       0.84291500
    70  H          0.19848100       0.09101700       0.15708500
    71  H          0.68851800       0.41331500       0.64401400
    72  H          0.31148200       0.58668500       0.35598600
    73  H          0.34431600       0.29431500       0.72591400
    74  H          0.65568400       0.70568500       0.27408600
    75  H          0.31051800       0.44421600       0.69951400
    76  H          0.68948200       0.55578400       0.30048600
    77  H          0.37421800       0.51381600       0.84671500
    78  H          0.62578200       0.48618400       0.15328500
    79  H          0.52451800       0.51851700       0.64921500
    80  H          0.47548200       0.48148300       0.35078500
    81  H          0.61581600       0.09091400       0.15281400
    82  H          0.38418400       0.90908600       0.84718600
    83  H          0.89801900       0.11831700       0.63521500
    84  H          0.10198100       0.88168300       0.36478500
    85  H          0.51720000       0.05031800       0.72501800
    86  H          0.48280000       0.94968200       0.27498200
    87  H          0.85971700       0.07151500       0.53721500
    88  H          0.14028300       0.92848500       0.46278500
    89  H          0.45071700       0.30971400       0.15521500
    90  H          0.54928300       0.69028600       0.84478500
    91  H          0.77091900       0.90418400       0.05081500
    92  H          0.22908100       0.09581600       0.94918500
    93  H          0.41431800       0.34831500       0.58831600
    94  H          0.58568200       0.65168500       0.41168400
    95  H          0.63261900       0.03871600       0.58981700
    96  H          0.36738100       0.96128400       0.41018300
    97  H          0.33331900       0.50481700       0.05581600
    98  H          0.66668100       0.49518300       0.94418400
    99  H          0.61671800       0.42251500       0.54071600
   100  H          0.38328200       0.57748500       0.45928400
   101  H          0.67561900       0.93078200       0.69581500
   102  H          0.32438100       0.06921800       0.30418500
   103  H          0.91220000       0.97268100       0.64581700
   104  H          0.08780000       0.02731900       0.35418300
   105  H          0.62520000       0.21311900       0.67431800
   106  H          0.37480000       0.78688100       0.32568200
   107  N          0.69493120       0.09851100       0.69704900
   108  N          0.30506880       0.90148900       0.30295100
   109  N          0.52775120       0.33549100       0.69826900
   110  N          0.47224880       0.66450900       0.30173100
   111  C          0.55653140       0.20590120       0.00919110
   112  C          0.44346860       0.79409880      -0.00919110
   113  C          0.50581130       0.32855120       0.82666110
   114  C          0.49418870       0.67144880       0.17333890
   115  C          0.67099140       0.09554120       0.82567110
   116  C          0.32900860       0.90445880       0.17432890
   117  C          0.46350150       0.31620140       0.07218120
   118  C          0.53649850       0.68379860       0.92781880
   119  C          0.41874160       0.43316140       0.88973130
   120  C          0.58125840       0.56683860       0.11026870
   121  C          0.71721190       0.98463860       0.00980130
   122  C          0.28278810       0.01536140      -0.00980130
   123  C          0.73715180       0.98636860       0.88683130
   124  C          0.26284820       0.01363140       0.11316870
   125  C          0.63007160       0.09169130       0.06909120
   126  C          0.36992840       0.90830870       0.93090880
   127  C          0.39635170       0.42663150       0.01353130
   128  C          0.60364830       0.57336850       0.98646870
