data_EJOKOF04
_symmetry_space_group_name_H-M    'P1'
_symmetry_Int_Tables_number       1
loop_
_symmetry_equiv_pos_site_id
_symmetry_equiv_pos_as_xyz
1 x,y,z
_cell_length_a                   10.44362
_cell_length_b                   11.07803
_cell_length_c                   12.70474
_cell_angle_alpha                68.47401
_cell_angle_beta                 88.3082
_cell_angle_gamma                79.6652
loop_
_atom_site_label
_atom_site_type_symbol
_atom_site_fract_x
_atom_site_fract_y
_atom_site_fract_z
     1  O          0.34559170       0.20934190       0.67875160
     2  O          0.65440830       0.79065810       0.32124840
     3  O          0.53529190       0.20922000       0.59055160
     4  O          0.46470810       0.79078000       0.40944840
     5  C          0.46953000       0.17093000       0.67392000
     6  C          0.53047000       0.82907000       0.32608000
     7  I          0.75915916       0.21634817       0.75576514
     8  I          0.24084084       0.78365183       0.24423486
     9  C          0.65142000       0.06393000       0.82852000
    10  C          0.34858000       0.93607000       0.17148000
    11  C          0.52992000       0.06713000       0.78352000
    12  C          0.47008000       0.93287000       0.21648000
    13  C          0.46163000       0.96657000       0.84272000
    14  C          0.53837000       0.03343000       0.15728000
    15  C          0.70163000       0.96487000       0.92992000
    16  C          0.29837000       0.03513000       0.07008000
    17  C          0.51233000       0.86597000       0.94282000
    18  C          0.48767000       0.13403000       0.05718000
    19  C          0.63243000       0.86547000       0.98682000
    20  C          0.36757000       0.13453000       0.01318000
    21  H          0.38430000       0.96770000       0.81230000
    22  H          0.61570000       0.03230000       0.18770000
    23  H          0.77630000       0.96870000       0.95630000
    24  H          0.22370000       0.03130000       0.04370000
    25  H          0.46630000       0.79770000       0.98030000
    26  H          0.53370000       0.20230000       0.01970000
    27  H          0.66030000       0.80470000       0.05930000
    28  H          0.33970000       0.19530000       0.94070000
    29  H          0.30250000       0.27750000       0.59940000
    30  H          0.69750000       0.72250000       0.40060000
    31  H          0.67540000       0.23340000       0.38230000
    32  H          0.32460000       0.76660000       0.61770000
    33  N          0.61492000       0.37522000       0.32067180
    34  N          0.38508000       0.62478000       0.67932820
    35  C          0.78022000       0.14832000       0.28742000
    36  C          0.21978000       0.85168000       0.71258000
    37  C          0.74693000       0.40343000      -0.00632000
    38  C          0.25307000       0.59657000       0.00632000
    39  C          0.74182000       0.27162000       0.19782000
    40  C          0.25818000       0.72838000       0.80218000
    41  N          0.73202000       0.13382000       0.40058180
    42  N          0.26798000       0.86618000       0.59941820
    43  C          0.78472000       0.28273000       0.08712000
    44  C          0.21528000       0.71727000       0.91288000
    45  C          0.66112000       0.38573000       0.20862000
    46  C          0.33888000       0.61427000       0.79138000
    47  C          0.47133000       0.39964000       0.32293000
    48  C          0.52867000       0.60036000       0.67707000
    49  C          0.85753000       0.04343000       0.27082000
    50  C          0.14247000       0.95657000       0.72918000
    51  C          0.86503000       0.17283000       0.07212000
    52  C          0.13497000       0.82717000       0.92788000
    53  C          0.64183000       0.03743000       0.43792000
    54  C          0.35817000       0.96257000       0.56208000
    55  C          0.90053000       0.05663000       0.16152000
    56  C          0.09947000       0.94337000       0.83848000
    57  C          0.62773000       0.49983000       0.11702000
    58  C          0.37227000       0.50017000       0.88298000
    59  C          0.83803000       0.10223000       0.48742000
    60  C          0.16197000       0.89777000       0.51258000
    61  C          0.67043000       0.50933000       0.00862000
    62  C          0.32957000       0.49067000      -0.00862000
    63  C          0.67344000       0.45753000       0.36833000
    64  C          0.32656000       0.54247000       0.63167000
    65  H          0.78140000       0.40640000       0.91770000
    66  H          0.21860000       0.59360000       0.08230000
    67  H          0.43740000       0.48840000       0.27130000
    68  H          0.56260000       0.51160000       0.72870000
    69  H          0.44640000       0.38540000       0.39940000
    70  H          0.55360000       0.61460000       0.60060000
    71  H          0.43240000       0.34740000       0.29330000
    72  H          0.56760000       0.65260000       0.70670000
    73  H          0.87040000       0.96460000       0.32830000
    74  H          0.12960000       0.03540000       0.67170000
    75  H          0.89530000       0.18040000      -0.00530000
    76  H          0.10470000       0.81960000       0.00530000
    77  H          0.60940000       0.03340000       0.51240000
    78  H          0.39060000       0.96660000       0.48760000
    79  H          0.56840000       0.06640000       0.38230000
    80  H          0.43160000       0.93360000       0.61770000
    81  H          0.68740000       0.94760000       0.44630000
    82  H          0.31260000       0.05240000       0.55370000
    83  H          0.95840000       0.98160000       0.15630000
    84  H          0.04160000       0.01840000       0.84370000
    85  H          0.57340000       0.56940000       0.12530000
    86  H          0.42660000       0.43060000       0.87470000
    87  H          0.88240000       0.01040000       0.50430000
    88  H          0.11760000       0.98960000       0.49570000
    89  H          0.90140000       0.15840000       0.45930000
    90  H          0.09860000       0.84160000       0.54070000
    91  H          0.79440000       0.11040000       0.55730000
    92  H          0.20560000       0.88960000       0.44270000
    93  H          0.64240000       0.58840000       0.94470000
    94  H          0.35760000       0.41160000       0.05530000
    95  H          0.64040000       0.54640000       0.32930000
    96  H          0.35960000       0.45360000       0.67070000
    97  H          0.64740000       0.44240000       0.44040000
    98  H          0.35260000       0.55760000       0.55960000
    99  H          0.76540000       0.44140000       0.36330000
   100  H          0.23460000       0.55860000       0.63670000
   101  I          0.15620719       0.22734118       0.23892315
   102  I          0.84379281       0.77265882       0.76107685
   103  O          0.23670170       0.37173180       0.50054150
   104  O          0.76329830       0.62826820       0.49945850
   105  O          0.11368190       0.22592180       0.50044160
   106  O          0.88631810       0.77407820       0.49955840
   107  C          0.06182000       0.40363000       0.25532000
   108  C          0.93818000       0.59637000       0.74468000
   109  C          0.14932000       0.33322000       0.45882000
   110  C          0.85068000       0.66678000       0.54118000
   111  C          0.92867000       0.61673000       0.16413000
   112  C          0.07133000       0.38327000       0.83587000
   113  C          0.02653000       0.55873000       0.34862000
   114  C          0.97347000       0.44127000       0.65138000
   115  C          0.08132000       0.43322000       0.35062000
   116  C          0.91868000       0.56678000       0.64938000
   117  C          0.98507000       0.49533000       0.16202000
   118  C          0.01493000       0.50467000       0.83798000
   119  C          0.94947000       0.65033000       0.25643000
   120  C          0.05053000       0.34967000       0.74357000
   121  H          0.86870000       0.68030000       0.09830000
   122  H          0.13130000       0.31970000       0.90170000
   123  H          0.04430000       0.58030000       0.41430000
   124  H          0.95570000       0.41970000       0.58570000
   125  H          0.96970000       0.47130000       0.10030000
   126  H          0.03030000       0.52870000       0.89970000
   127  H          0.91570000       0.73430000       0.25330000
   128  H          0.08430000       0.26570000       0.74670000
