data_EJUTOV
_symmetry_space_group_name_H-M    'P1'
_symmetry_Int_Tables_number       1
loop_
_symmetry_equiv_pos_site_id
_symmetry_equiv_pos_as_xyz
1 x,y,z
_cell_length_a                   24.57774
_cell_length_b                   8.940601
_cell_length_c                   13.37722
_cell_angle_alpha                90.0
_cell_angle_beta                 93.3132
_cell_angle_gamma                90.0
loop_
_atom_site_label
_atom_site_type_symbol
_atom_site_fract_x
_atom_site_fract_y
_atom_site_fract_z
     1  S          0.98885800       0.82058400       0.37415400
     2  S          0.01114200       0.32058400       0.12584600
     3  S          0.01114200       0.17941600       0.62584600
     4  S          0.98885800       0.67941600       0.87415400
     5  S          0.18355200       0.03065600       0.48561400
     6  S          0.81644800       0.53065600       0.01438600
     7  S          0.81644800       0.96934400       0.51438600
     8  S          0.18355200       0.46934400       0.98561400
     9  S          0.02217200       0.40454600       0.38376400
    10  S          0.97782800       0.90454600       0.11623600
    11  S          0.97782800       0.59545400       0.61623600
    12  S          0.02217200       0.09545400       0.88376400
    13  N          0.09858800       0.20162000       0.43063150
    14  N          0.90141200       0.70162000       0.06936850
    15  N          0.90141200       0.79838000       0.56936850
    16  N          0.09858800       0.29838000       0.93063150
    17  N          0.01524900       0.10972000       0.37066150
    18  N          0.98475100       0.60972000       0.12933850
    19  N          0.98475100       0.89028000       0.62933850
    20  N          0.01524900       0.39028000       0.87066150
    21  N          0.08273800       0.94728000       0.42868150
    22  N          0.91726200       0.44728000       0.07131850
    23  N          0.91726200       0.05272000       0.57131850
    24  N          0.08273800       0.55272000       0.92868150
    25  C          0.03016100       0.96547000       0.39137160
    26  C          0.96983900       0.46547000       0.10862840
    27  C          0.96983900       0.03453000       0.60862840
    28  C          0.03016100       0.53453000       0.89137160
    29  C          0.04603100       0.23273000       0.39498170
    30  C          0.95396900       0.73273000       0.10501830
    31  C          0.95396900       0.76727000       0.60501830
    32  C          0.04603100       0.26727000       0.89498170
    33  C          0.11866100       0.06083000       0.44650170
    34  C          0.88133900       0.56083000       0.05349830
    35  C          0.88133900       0.93917000       0.55349830
    36  C          0.11866100       0.43917000       0.94650170
    37  H          0.98428700       0.12730000       0.34920000
    38  H          0.01571300       0.62730000       0.15080000
    39  H          0.01571300       0.87270000       0.65080000
    40  H          0.98428700       0.37270000       0.84920000
    41  H          0.09391300       0.85460000       0.45220000
    42  H          0.90608700       0.35460000       0.04780000
    43  H          0.90608700       0.14540000       0.54780000
    44  H          0.09391300       0.64540000       0.95220000
    45  H          0.12081400       0.27340000       0.44520000
    46  H          0.87918600       0.77340000       0.05480000
    47  H          0.87918600       0.72660000       0.55480000
    48  H          0.12081400       0.22660000       0.94520000
    49  S          0.10671200       0.69751600       0.22823400
    50  S          0.89328800       0.19751600       0.27176600
    51  S          0.89328800       0.30248400       0.77176600
    52  S          0.10671200       0.80248400       0.72823400
    53  S          0.14461200       0.11885600       0.19549400
    54  S          0.85538800       0.61885600       0.30450600
    55  S          0.85538800       0.88114400       0.80450600
    56  S          0.14461200       0.38114400       0.69549400
    57  S          0.30926200       0.50070700       0.24101500
    58  S          0.69073800       0.00070700       0.25898500
    59  S          0.69073800       0.49929300       0.75898500
    60  S          0.30926200      -0.00070700       0.74101500
    61  N          0.13380900       0.41082000       0.21443150
    62  N          0.86619100       0.91082000       0.28556850
    63  N          0.86619100       0.58918000       0.78556850
    64  N          0.13380900       0.08918000       0.71443150
    65  N          0.22237900       0.32392000       0.22758160
    66  N          0.77762100       0.82392000       0.27241840
    67  N          0.77762100       0.67608000       0.77241840
    68  N          0.22237900       0.17608000       0.72758160
    69  N          0.20498800       0.57692000       0.23699150
    70  N          0.79501200       0.07692000       0.26300850
    71  N          0.79501200       0.42308000       0.76300850
    72  N          0.20498800       0.92308000       0.73699150
    73  C          0.15010100       0.55543000       0.22658170
    74  C          0.84989900       0.05543000       0.27341830
    75  C          0.84989900       0.44457000       0.77341830
    76  C          0.15010100       0.94457000       0.72658170
    77  C          0.24285100       0.46563000       0.23551180
    78  C          0.75714900       0.96563000       0.26448820
    79  C          0.75714900       0.53437000       0.76448820
    80  C          0.24285100       0.03437000       0.73551180
    81  C          0.16802100       0.29063000       0.21349170
    82  C          0.83197900       0.79063000       0.28650830
    83  C          0.83197900       0.70937000       0.78650830
    84  C          0.16802100       0.20937000       0.71349170
    85  H          0.09921200       0.39530000       0.20261900
    86  H          0.90078800       0.89530000       0.29738100
    87  H          0.90078800       0.60470000       0.79738100
    88  H          0.09921200       0.10470000       0.70261900
    89  H          0.24411400       0.25440000       0.23220000
    90  H          0.75588600       0.75440000       0.26780000
    91  H          0.75588600       0.74560000       0.76780000
    92  H          0.24411400       0.24560000       0.73220000
    93  H          0.21541800       0.65950000       0.24130000
    94  H          0.78458200       0.15950000       0.25870000
    95  H          0.78458200       0.34050000       0.75870000
    96  H          0.21541800       0.84050000       0.74130000
    97  O          0.17263700       0.42688190       0.43945130
    98  O          0.82736300       0.92688190       0.06054870
    99  O          0.82736300       0.57311810       0.56054870
   100  O          0.17263700       0.07311810       0.93945130
   101  N          0.16695800       0.65152000       0.51323160
   102  N          0.83304200       0.15152000       0.98676840
   103  N          0.83304200       0.34848000       0.48676840
   104  N          0.16695800       0.84848000       0.01323160
   105  N          0.11015800       0.66272000       0.49008160
   106  N          0.88984200       0.16272000       0.00991840
   107  N          0.88984200       0.33728000       0.50991840
   108  N          0.11015800       0.83728000      -0.00991840
   109  C          0.19529100       0.53293000       0.48315170
   110  C          0.80470900       0.03293000       0.01684830
   111  C          0.80470900       0.46707000       0.51684830
   112  C          0.19529100       0.96707000       0.98315170
   113  C          0.25565100       0.53553000       0.50461180
   114  C          0.74434900       0.03553000      -0.00461180
   115  C          0.74434900       0.46447000       0.49538820
   116  C          0.25565100       0.96447000       0.00461180
   117  C          0.28552110       0.66463000       0.52652000
   118  C          0.71447890       0.16463000       0.97348000
   119  C          0.71447890       0.33537000       0.47348000
   120  C          0.28552110       0.83537000       0.02652000
   121  C          0.34151120       0.65693000       0.54302000
   122  C          0.65848880       0.15693000       0.95698000
   123  C          0.65848880       0.34307000       0.45698000
   124  C          0.34151120       0.84307000       0.04302000
   125  C          0.28278120       0.39903000       0.50122000
   126  C          0.71721880       0.89903000      -0.00122000
   127  C          0.71721880       0.60097000       0.49878000
   128  C          0.28278120       0.10097000       0.00122000
   129  C          0.36899110       0.52143000       0.53862000
   130  C          0.63100890       0.02143000       0.96138000
   131  C          0.63100890       0.47857000       0.46138000
   132  C          0.36899110       0.97857000       0.03862000
   133  C          0.33881120       0.39303000       0.51872000
   134  C          0.66118880       0.89303000       0.98128000
   135  C          0.66118880       0.60697000       0.48128000
   136  C          0.33881120       0.10697000       0.01872000
   137  C          0.43021130       0.51494000       0.55583000
   138  C          0.56978870       0.01494000       0.94417000
   139  C          0.56978870       0.48506000       0.44417000
   140  C          0.43021130      -0.01494000       0.05583000
   141  H          0.18281600       0.73550000       0.53330000
   142  H          0.81718400       0.23550000       0.96670000
   143  H          0.81718400       0.26450000       0.46670000
   144  H          0.18281600       0.76450000       0.03330000
   145  H          0.36251600       0.74650000       0.55730000
   146  H          0.63748400       0.24650000       0.94270000
   147  H          0.63748400       0.25350000       0.44270000
   148  H          0.36251600       0.75350000       0.05730000
   149  H          0.26311600       0.31850000       0.48330000
   150  H          0.73688400       0.81850000       0.01670000
   151  H          0.73688400       0.68150000       0.51670000
   152  H          0.26311600       0.18150000       0.98330000
   153  H          0.35751600       0.31050000       0.51630000
   154  H          0.64248400       0.81050000       0.98370000
   155  H          0.64248400       0.68950000       0.48370000
   156  H          0.35751600       0.18950000       0.01630000
   157  H          0.09301200       0.63830000       0.54520000
   158  H          0.90698800       0.13830000       0.95480000
   159  H          0.90698800       0.36170000       0.45480000
   160  H          0.09301200       0.86170000       0.04520000
   161  H          0.10171300       0.60140000       0.44430000
   162  H          0.89828700       0.10140000       0.05570000
   163  H          0.89828700       0.39860000       0.55570000
   164  H          0.10171300       0.89860000       0.94430000
   165  H          0.44091700       0.51150000       0.62230000
   166  H          0.55908300       0.01150000       0.87770000
   167  H          0.55908300       0.48850000       0.37770000
   168  H          0.44091700      -0.01150000       0.12230000
   169  H          0.26721400       0.75540000       0.52720000
   170  H          0.73278600       0.25540000       0.97280000
   171  H          0.73278600       0.24460000       0.47280000
   172  H          0.26721400       0.74460000       0.02720000
   173  H          0.44451800       0.43650000       0.52130000
   174  H          0.55548200       0.93650000       0.97870000
   175  H          0.55548200       0.56350000       0.47870000
   176  H          0.44451800       0.06350000       0.02130000
   177  H          0.44521900       0.59760000       0.52740000
   178  H          0.55478100       0.09760000       0.97260000
   179  H          0.55478100       0.40240000       0.47260000
   180  H          0.44521900       0.90240000       0.02740000
   181  O          0.30069800       0.11702000       0.28782000
   182  O          0.69930200       0.61702000       0.21218000
   183  O          0.69930200       0.88298000       0.71218000
   184  O          0.30069800       0.38298000       0.78782000
   185  N          0.23881900       0.86718000       0.27224180
   186  N          0.76118100       0.36718000       0.22775820
   187  N          0.76118100       0.13282000       0.72775820
   188  N          0.23881900       0.63282000       0.77224180
   189  N          0.29508900       0.86808000       0.29810180
   190  N          0.70491100       0.36808000       0.20189820
   191  N          0.70491100       0.13192000       0.70189820
   192  N          0.29508900       0.63192000       0.79810180
   193  C          0.32340100      -0.00393000       0.30042000
   194  C          0.67659900       0.49607000       0.19958000
   195  C          0.67659900       0.00393000       0.69958000
   196  C          0.32340100       0.50393000       0.80042000
   197  C          0.38378110      -0.01403000       0.32192000
   198  C          0.61621890       0.48597000       0.17808000
   199  C          0.61621890       0.01403000       0.67808000
   200  C          0.38378110       0.51403000       0.82192000
   201  C          0.46809120       0.85217000       0.35422000
   202  C          0.53190880       0.35217000       0.14578000
   203  C          0.53190880       0.14783000       0.64578000
   204  C          0.46809120       0.64783000       0.85422000
   205  C          0.41291120       0.11993000       0.32502000
   206  C          0.58708880       0.61993000       0.17498000
   207  C          0.58708880       0.88007000       0.67498000
   208  C          0.41291120       0.38007000       0.82502000
   209  C          0.41181110       0.85187000       0.33702000
   210  C          0.58818890       0.35187000       0.16298000
   211  C          0.58818890       0.14813000       0.66298000
   212  C          0.41181110       0.64813000       0.83702000
   213  C          0.49759110      -0.01503000       0.35712000
   214  C          0.50240890       0.48497000       0.14288000
   215  C          0.50240890       0.01503000       0.64288000
   216  C          0.49759110       0.51503000       0.85712000
   217  C          0.46887120       0.11843000       0.34272000
   218  C          0.53112880       0.61843000       0.15728000
   219  C          0.53112880       0.88157000       0.65728000
   220  C          0.46887120       0.38157000       0.84272000
   221  C          0.55884120       0.98386000       0.37623000
   222  C          0.44115880       0.48386000       0.12377000
   223  C          0.44115880       0.01614000       0.62377000
   224  C          0.55884120       0.51614000       0.87623000
   225  H          0.48871600       0.76250000       0.36130000
   226  H          0.51128400       0.26250000       0.13870000
   227  H          0.51128400       0.23750000       0.63870000
   228  H          0.48871600       0.73750000       0.86130000
   229  H          0.39411600       0.75750000       0.33930000
   230  H          0.60588400       0.25750000       0.16070000
   231  H          0.60588400       0.24250000       0.66070000
   232  H          0.39411600       0.74250000       0.83930000
   233  H          0.48981600       0.20750000       0.34330000
   234  H          0.51018400       0.70750000       0.15670000
   235  H          0.51018400       0.79250000       0.65670000
   236  H          0.48981600       0.29250000       0.84330000
   237  H          0.31201500       0.78360000       0.29730000
   238  H          0.68798500       0.28360000       0.20270000
   239  H          0.68798500       0.21640000       0.70270000
   240  H          0.31201500       0.71640000       0.79730000
   241  H          0.22981500       0.92450000       0.22130000
   242  H          0.77018500       0.42450000       0.27870000
   243  H          0.77018500       0.07550000       0.77870000
   244  H          0.22981500       0.57550000       0.72130000
   245  H          0.56851600      -0.00140000       0.44830000
   246  H          0.43148400       0.49860000       0.05170000
   247  H          0.43148400       0.00140000       0.55170000
   248  H          0.56851600       0.50140000       0.94830000
   249  H          0.39231300       0.20540000       0.31320000
   250  H          0.60768700       0.70540000       0.18680000
   251  H          0.60768700       0.79460000       0.68680000
   252  H          0.39231300       0.29460000       0.81320000
   253  H          0.22211400       0.90360000       0.32530000
   254  H          0.77788600       0.40360000       0.17470000
   255  H          0.77788600       0.09640000       0.67470000
   256  H          0.22211400       0.59640000       0.82530000
   257  H          0.57321600       0.89550000       0.34930000
   258  H          0.42678400       0.39550000       0.15070000
   259  H          0.42678400       0.10450000       0.65070000
   260  H          0.57321600       0.60450000       0.84930000
   261  H          0.57691900       0.06360000       0.34330000
   262  H          0.42308100       0.56360000       0.15670000
   263  H          0.42308100       0.93640000       0.65670000
   264  H          0.57691900       0.43640000       0.84330000
