data_EJUTIP
_symmetry_space_group_name_H-M    'P1'
_symmetry_Int_Tables_number       1
loop_
_symmetry_equiv_pos_site_id
_symmetry_equiv_pos_as_xyz
1 x,y,z
_cell_length_a                   12.30394
_cell_length_b                   6.44312
_cell_length_c                   25.95477
_cell_angle_alpha                90.0
_cell_angle_beta                 94.1453
_cell_angle_gamma                90.0
loop_
_atom_site_label
_atom_site_type_symbol
_atom_site_fract_x
_atom_site_fract_y
_atom_site_fract_z
     1  S          0.27246500       0.29264900       0.58089200
     2  S          0.72753500       0.29264900       0.91910800
     3  S          0.77246500       0.79264900       0.58089200
     4  S          0.22753500       0.79264900       0.91910800
     5  S          0.72753500       0.70735100       0.41910800
     6  S          0.27246500       0.70735100       0.08089200
     7  S          0.22753500       0.20735100       0.41910800
     8  S          0.77246500       0.20735100       0.08089200
     9  S          0.40455500       0.72565900       0.45165200
    10  S          0.59544500       0.72565900       0.04834800
    11  S          0.90455500       0.22565900       0.45165200
    12  S          0.09544500       0.22565900       0.04834800
    13  S          0.59544500       0.27434100       0.54834800
    14  S          0.40455500       0.27434100       0.95165200
    15  S          0.09544500       0.77434100       0.54834800
    16  S          0.90455500       0.77434100       0.95165200
    17  S          0.50048500       0.64448900       0.65211200
    18  S          0.49951500       0.64448900       0.84788800
    19  S          0.00048500       0.14448900       0.65211200
    20  S         -0.00048500       0.14448900       0.84788800
    21  S          0.49951500       0.35551100       0.34788800
    22  S          0.50048500       0.35551100       0.15211200
    23  S         -0.00048500       0.85551100       0.34788800
    24  S          0.00048500       0.85551100       0.15211200
    25  N          0.34747160      -0.00473000       0.52234800
    26  N          0.65252840      -0.00473000       0.97765200
    27  N          0.84747160       0.49527000       0.52234800
    28  N          0.15252840       0.49527000       0.97765200
    29  N          0.65252840       0.00473000       0.47765200
    30  N          0.34747160       0.00473000       0.02234800
    31  N          0.15252840       0.50473000       0.47765200
    32  N          0.84747160       0.50473000       0.02234800
    33  N          0.39065160       0.96517000       0.61046800
    34  N          0.60934840       0.96517000       0.88953200
    35  N          0.89065160       0.46517000       0.61046800
    36  N          0.10934840       0.46517000       0.88953200
    37  N          0.60934840       0.03483000       0.38953200
    38  N          0.39065160       0.03483000       0.11046800
    39  N          0.10934840       0.53483000       0.38953200
    40  N          0.89065160       0.53483000       0.11046800
    41  N          0.44939170       0.71807000       0.55350900
    42  N          0.55060830       0.71807000       0.94649100
    43  N          0.94939170       0.21807000       0.55350900
    44  N          0.05060830       0.21807000       0.94649100
    45  N          0.55060830       0.28193000       0.44649100
    46  N          0.44939170       0.28193000       0.05350900
    47  N          0.05060830       0.78193000       0.44649100
    48  N          0.94939170       0.78193000       0.05350900
    49  C          0.44482000       0.78236000       0.60370100
    50  C          0.55518000       0.78236000       0.89629900
    51  C          0.94482000       0.28236000       0.60370100
    52  C          0.05518000       0.28236000       0.89629900
    53  C          0.55518000       0.21764000       0.39629900
    54  C          0.44482000       0.21764000       0.10370100
    55  C          0.05518000       0.71764000       0.39629900
    56  C          0.94482000       0.71764000       0.10370100
    57  C          0.34012190       0.07574000       0.57076900
    58  C          0.65987810       0.07574000       0.92923100
    59  C          0.84012190       0.57574000       0.57076900
    60  C          0.15987810       0.57574000       0.92923100
    61  C          0.65987810       0.92426000       0.42923100
    62  C          0.34012190       0.92426000       0.07076900
    63  C          0.15987810       0.42426000       0.42923100
    64  C          0.84012190       0.42426000       0.07076900
    65  C          0.40057190       0.81616000       0.51161100
    66  C          0.59942810       0.81616000       0.98838900
    67  C          0.90057190       0.31616000       0.51161100
    68  C          0.09942810       0.31616000       0.98838900
    69  C          0.59942810       0.18384000       0.48838900
    70  C          0.40057190       0.18384000       0.01161100
    71  C          0.09942810       0.68384000       0.48838900
    72  C          0.90057190       0.68384000       0.01161100
    73  H          0.31330000       0.06150000       0.49861300
    74  H          0.68670000       0.06150000       0.00138700
    75  H          0.81330000       0.56150000       0.49861300
    76  H          0.18670000       0.56150000       0.00138700
    77  H          0.68670000       0.93850000       0.50138700
    78  H          0.31330000       0.93850000      -0.00138700
    79  H          0.18670000       0.43850000       0.50138700
    80  H          0.81330000       0.43850000      -0.00138700
    81  H          0.39130000       0.00550000       0.64451300
    82  H          0.60870000       0.00550000       0.85548700
    83  H          0.89130000       0.50550000       0.64451300
    84  H          0.10870000       0.50550000       0.85548700
    85  H          0.60870000      -0.00550000       0.35548700
    86  H          0.39130000      -0.00550000       0.14451300
    87  H          0.10870000       0.49450000       0.35548700
    88  H          0.89130000       0.49450000       0.14451300
    89  H          0.47830000       0.61040000       0.55001300
    90  H          0.52170000       0.61040000       0.94998700
    91  H          0.97830000       0.11040000       0.55001300
    92  H          0.02170000       0.11040000       0.94998700
    93  H          0.52170000       0.38960000       0.44998700
    94  H          0.47830000       0.38960000       0.05001300
    95  H          0.02170000       0.88960000       0.44998700
    96  H          0.97830000       0.88960000       0.05001300
    97  N          0.37330170       0.88683000       0.20963800
    98  N          0.62669830       0.88683000       0.29036200
    99  N          0.87330170       0.38683000       0.20963800
   100  N          0.12669830       0.38683000       0.29036200
   101  N          0.62669830       0.11317000       0.79036200
   102  N          0.37330170       0.11317000       0.70963800
   103  N          0.12669830       0.61317000       0.79036200
   104  N          0.87330170       0.61317000       0.70963800
   105  C          0.39852000       0.85734000       0.30160100
   106  C          0.60148000       0.85734000       0.19839900
   107  C          0.89852000       0.35734000       0.30160100
   108  C          0.10148000       0.35734000       0.19839900
   109  C          0.60148000       0.14266000       0.69839900
   110  C          0.39852000       0.14266000       0.80160100
   111  C          0.10148000       0.64266000       0.69839900
   112  C          0.89852000       0.64266000       0.80160100
   113  C          0.28702000       0.86064000       0.30514100
   114  C          0.71298000       0.86064000       0.19485900
   115  C          0.78702000       0.36064000       0.30514100
   116  C          0.21298000       0.36064000       0.19485900
   117  C          0.71298000       0.13936000       0.69485900
   118  C          0.28702000       0.13936000       0.80514100
   119  C          0.21298000       0.63936000       0.69485900
   120  C          0.78702000       0.63936000       0.80514100
   121  C          0.44029190       0.87304000       0.25314100
   122  C          0.55970810       0.87304000       0.24685900
   123  C          0.94029190       0.37304000       0.25314100
   124  C          0.05970810       0.37304000       0.24685900
   125  C          0.55970810       0.12696000       0.74685900
   126  C          0.44029190       0.12696000       0.75314100
   127  C          0.05970810       0.62696000       0.74685900
   128  C          0.94029190       0.62696000       0.75314100
   129  C          0.26562000       0.88224000       0.21372100
   130  C          0.73438000       0.88224000       0.28627900
   131  C          0.76562000       0.38224000       0.21372100
   132  C          0.23438000       0.38224000       0.28627900
   133  C          0.73438000       0.11776000       0.78627900
   134  C          0.26562000       0.11776000       0.71372100
   135  C          0.23438000       0.61776000       0.78627900
   136  C          0.76562000       0.61776000       0.71372100
   137  C          0.21852000       0.87104000       0.26015100
   138  C          0.78148000       0.87104000       0.23984900
   139  C          0.71852000       0.37104000       0.26015100
   140  C          0.28148000       0.37104000       0.23984900
   141  C          0.78148000       0.12896000       0.73984900
   142  C          0.21852000       0.12896000       0.76015100
   143  C          0.28148000       0.62896000       0.73984900
   144  C          0.71852000       0.62896000       0.76015100
   145  H          0.45330000       0.84850000       0.33251300
   146  H          0.54670000       0.84850000       0.16748700
   147  H          0.95330000       0.34850000       0.33251300
   148  H          0.04670000       0.34850000       0.16748700
   149  H          0.54670000       0.15150000       0.66748700
   150  H          0.45330000       0.15150000       0.83251300
   151  H          0.04670000       0.65150000       0.66748700
   152  H          0.95330000       0.65150000       0.83251300
   153  H          0.25930000       0.84850000       0.33681400
   154  H          0.74070000       0.84850000       0.16318600
   155  H          0.75930000       0.34850000       0.33681400
   156  H          0.24070000       0.34850000       0.16318600
   157  H          0.74070000       0.15150000       0.66318600
   158  H          0.25930000       0.15150000       0.83681400
   159  H          0.24070000       0.65150000       0.66318600
   160  H          0.75930000       0.65150000       0.83681400
   161  H          0.22030000       0.88450000       0.18111300
   162  H          0.77970000       0.88450000       0.31888700
   163  H          0.72030000       0.38450000       0.18111300
   164  H          0.27970000       0.38450000       0.31888700
   165  H          0.77970000       0.11550000       0.81888700
   166  H          0.22030000       0.11550000       0.68111300
   167  H          0.27970000       0.61550000       0.81888700
   168  H          0.72030000       0.61550000       0.68111300
   169  H          0.14630000       0.86050000       0.26211300
   170  H          0.85370000       0.86050000       0.23788700
   171  H          0.64630000       0.36050000       0.26211300
   172  H          0.35370000       0.36050000       0.23788700
   173  H          0.85370000       0.13950000       0.73788700
   174  H          0.14630000       0.13950000       0.76211300
   175  H          0.35370000       0.63950000       0.73788700
   176  H          0.64630000       0.63950000       0.76211300
