data_EKAZEY
_symmetry_space_group_name_H-M    'P1'
_symmetry_Int_Tables_number       1
loop_
_symmetry_equiv_pos_site_id
_symmetry_equiv_pos_as_xyz
1 x,y,z
_cell_length_a                   11.109616
_cell_length_b                   4.80137
_cell_length_c                   12.601617
_cell_angle_alpha                90.0
_cell_angle_beta                 108.5092
_cell_angle_gamma                90.0
loop_
_atom_site_label
_atom_site_type_symbol
_atom_site_fract_x
_atom_site_fract_y
_atom_site_fract_z
     1  O          0.62586100       0.31983000       0.45961100
     2  O          0.87413900       0.81983000       0.04038900
     3  O          0.37413900       0.68017000       0.54038900
     4  O          0.12586100       0.18017000       0.95961100
     5  N          0.41736110       0.24913000       0.38998110
     6  N          0.08263890       0.74913000       0.11001890
     7  N          0.58263890       0.75087000       0.61001890
     8  N          0.91736110       0.25087000       0.88998110
     9  H          0.40370000       0.39690000       0.42290000
    10  H          0.09630000       0.89690000       0.07710000
    11  H          0.59630000       0.60310000       0.57710000
    12  H          0.90370000       0.10310000       0.92290000
    13  N          0.55369130       0.96707000       0.33654120
    14  N          0.94630870       0.46707000       0.16345880
    15  N          0.44630870       0.03293000       0.66345880
    16  N          0.05369130       0.53293000       0.83654120
    17  H          0.62930000       0.91870000       0.33970000
    18  H          0.87070000       0.41870000       0.16030000
    19  H          0.37070000       0.08130000       0.66030000
    20  H          0.12930000       0.58130000       0.83970000
    21  H          0.48940000       0.87690000       0.29430000
    22  H          0.01060000       0.37690000       0.20570000
    23  H          0.51060000       0.12310000       0.70570000
    24  H         -0.01060000       0.62310000       0.79430000
    25  N          0.31446130       0.08173000       0.32956120
    26  N          0.18553870       0.58173000       0.17043880
    27  N          0.68553870       0.91827000       0.67043880
    28  N          0.81446130       0.41827000       0.82956120
    29  H          0.28170000      -0.00170000       0.37510000
    30  H          0.21830000       0.49830000       0.12490000
    31  H          0.71830000       0.00170000       0.62490000
    32  H          0.78170000       0.50170000       0.87510000
    33  H          0.25620000       0.18290000       0.28350000
    34  H          0.24380000       0.68290000       0.21650000
    35  H          0.74380000       0.81710000       0.71650000
    36  H          0.75620000       0.31710000       0.78350000
    37  C          0.53630140       0.18063000       0.39672120
    38  C          0.96369860       0.68063000       0.10327880
    39  C          0.46369860       0.81937000       0.60327880
    40  C          0.03630140       0.31937000       0.89672120
    41  O          0.92314110      -0.01597000       0.32059100
    42  O          0.57685890       0.48403000       0.17940900
    43  O          0.07685890       0.01597000       0.67940900
    44  O          0.42314110       0.51597000       0.82059100
    45  N          0.86702120       0.44543000       0.48327120
    46  N          0.63297880       0.94543000       0.01672880
    47  N          0.13297880       0.55457000       0.51672880
    48  N          0.36702120       0.05457000       0.98327120
    49  H          0.78810000       0.41280000       0.47350000
    50  H          0.71190000       0.91280000       0.02650000
    51  H          0.21190000       0.58720000       0.52650000
    52  H          0.28810000       0.08720000       0.97350000
    53  N          0.95135130       0.09483000       0.62108120
    54  N          0.54864870       0.59483000       0.87891880
    55  N          0.04864870       0.90517000       0.37891880
    56  N          0.45135130       0.40517000       0.12108120
    57  N          0.83659130       0.81773000       0.35224120
    58  N          0.66340870       0.31773000       0.14775880
    59  N          0.16340870       0.18227000       0.64775880
    60  N          0.33659130       0.68227000       0.85224120
    61  C          0.96240140       0.29793000       0.55785130
    62  C          0.53759860       0.79793000       0.94214870
    63  C          0.03759860       0.70207000       0.44214870
    64  C          0.46240140       0.20207000       0.05785130
    65  C          0.90607140       0.64793000       0.42551130
    66  C          0.59392860       0.14793000       0.07448870
    67  C          0.09392860       0.35207000       0.57448870
    68  C          0.40607140       0.85207000       0.92551130
