data_EMACOM
_symmetry_space_group_name_H-M    'P1'
_symmetry_Int_Tables_number       1
loop_
_symmetry_equiv_pos_site_id
_symmetry_equiv_pos_as_xyz
1 x,y,z
_cell_length_a                   8.8963
_cell_length_b                   9.0893
_cell_length_c                   10.7314
_cell_angle_alpha                88.8214
_cell_angle_beta                 89.6825
_cell_angle_gamma                85.6494
loop_
_atom_site_label
_atom_site_type_symbol
_atom_site_fract_x
_atom_site_fract_y
_atom_site_fract_z
     1  O          0.02612900       0.63492900       0.22806800
     2  O          0.97387100       0.36507100       0.77193200
     3  H          0.06540000       0.66560000       0.29260000
     4  H          0.93460000       0.33440000       0.70740000
     5  O          0.34989100       0.63822100       0.90262800
     6  O          0.65010900       0.36177900       0.09737200
     7  H          0.28830000       0.70890000       0.92170000
     8  H          0.71170000       0.29110000       0.07830000
     9  C          0.41103120       0.91143890       0.14518900
    10  C          0.58896880       0.08856110       0.85481100
    11  C          0.33966120       0.04959110       0.13350900
    12  C          0.66033880       0.95040890       0.86649100
    13  C          0.27769120       0.17124110       0.11741100
    14  C          0.72230880       0.82875890       0.88258900
    15  C          0.20790120       0.31432110       0.09458900
    16  C          0.79209880       0.68567890       0.90541100
    17  H          0.16100000       0.33490000       0.01620000
    18  H          0.83900000       0.66510000       0.98380000
    19  C          0.20468110       0.42342110       0.17889900
    20  C          0.79531890       0.57657890       0.82110100
    21  C          0.26669120       0.39931110       0.29975100
    22  C          0.73330880       0.60068890       0.70024900
    23  C          0.31195120       0.38780110       0.40554100
    24  C          0.68804880       0.61219890       0.59445900
    25  C          0.34989120       0.38468120       0.52882100
    26  C          0.65010880       0.61531880       0.47117900
    27  C          0.37526120       0.39008110       0.63902100
    28  C          0.62473880       0.60991890       0.36097900
    29  C          0.38741120       0.43588110       0.76424900
    30  C          0.61258880       0.56411890       0.23575100
    31  C          0.45484110       0.35479110       0.85784900
    32  C          0.54515890       0.64520890       0.14215100
    33  H          0.45540000       0.39860000       0.93740000
    34  H          0.54460000       0.60140000       0.06260000
    35  C          0.52476110       0.21052110       0.84813900
    36  C          0.47523890       0.78947890       0.15186100
    37  C          0.14141120       0.57826110       0.14586100
    38  C          0.85858880       0.42173890       0.85413900
    39  H          0.22460000       0.64470000       0.14580000
    40  H          0.77540000       0.35530000       0.85420000
    41  H          0.10030000       0.57920000       0.06030000
    42  H          0.89970000       0.42080000       0.93970000
    43  C          0.31655130       0.59000120       0.78303100
    44  C          0.68344870       0.40999880       0.21696900
    45  H          0.35540000       0.65790000       0.71930000
    46  H          0.64460000       0.34210000       0.28070000
    47  H          0.20590000       0.59090000       0.77300000
    48  H          0.79410000       0.40910000       0.22700000
    49  O          0.12416900       0.84648800       0.96885700
    50  O          0.87583100       0.15351200       0.03114300
    51  N          0.12860120       0.77071110       0.44564900
    52  N          0.87139880       0.22928890       0.55435100
    53  N          0.08036100       0.06099900       0.85648800
    54  N          0.91963900       0.93900100       0.14351200
    55  H          0.01840000       0.14050000       0.84630000
    56  H          0.98160000       0.85950000       0.15370000
    57  C          0.28208130       0.92095140       0.56542110
    58  C          0.71791870       0.07904860       0.43457890
    59  H          0.37480000       0.96520000       0.57320000
    60  H          0.62520000       0.03480000       0.42680000
    61  C          0.25641140       0.83590150       0.46334110
    62  C          0.74358860       0.16409850       0.53665890
    63  H          0.33390000       0.82310000       0.40240000
    64  H          0.66610000       0.17690000       0.59760000
    65  C          0.02289140       0.79051130       0.53377110
    66  C          0.97710860       0.20948870       0.46622890
    67  H          0.93120000       0.74500000       0.52340000
    68  H          0.06880000       0.25500000       0.47660000
    69  C          0.03848130       0.87362120       0.63998100
    70  C          0.96151870       0.12637880       0.36001900
    71  H          0.95950000       0.88370000       0.69980000
    72  H          0.04050000       0.11630000       0.30020000
    73  C          0.17068120       0.94121110       0.65691900
    74  C          0.82931880       0.05878890       0.34308100
    75  C          0.20289120       0.03329120       0.76820100
    76  C          0.79710880       0.96670880       0.23179900
    77  H          0.28970000       0.98350000       0.81360000
    78  H          0.71030000       0.01650000       0.18640000
    79  H          0.23410000       0.12970000       0.73700000
    80  H          0.76590000       0.87030000       0.26300000
    81  C          0.05878110       0.96967110       0.95255900
    82  C          0.94121890       0.03032890       0.04744100
