data_EMADON
_symmetry_space_group_name_H-M    'P1'
_symmetry_Int_Tables_number       1
loop_
_symmetry_equiv_pos_site_id
_symmetry_equiv_pos_as_xyz
1 x,y,z
_cell_length_a                   10.21118
_cell_length_b                   10.41838
_cell_length_c                   16.010012
_cell_angle_alpha                78.91201
_cell_angle_beta                 83.71201
_cell_angle_gamma                72.75101
loop_
_atom_site_label
_atom_site_type_symbol
_atom_site_fract_x
_atom_site_fract_y
_atom_site_fract_z
     1  C          0.67300160       0.55938160       0.16625900
     2  C          0.32699840       0.44061840       0.83374100
     3  H          0.59520000       0.62820000       0.13951200
     4  H          0.40480000       0.37180000       0.86048800
     5  H          0.69931900       0.59321900       0.21501200
     6  H          0.30068100       0.40678100       0.78498800
     7  H          0.64501900       0.47720000       0.18681200
     8  H          0.35498100       0.52280000       0.81318800
     9  C          0.78835130       0.53727120       0.10011800
    10  C          0.21164870       0.46272880       0.89988200
    11  C          0.87851170       0.63057150       0.08706900
    12  C          0.12148830       0.36942850       0.91293100
    13  H          0.93501900       0.61171800       0.13871200
    14  H          0.06498100       0.38828200       0.86128800
    15  H          0.81920000       0.72120000       0.08471300
    16  H          0.18080000       0.27880000       0.91528700
    17  H          0.93981900       0.61741900       0.03571200
    18  H          0.06018100       0.38258100       0.96428800
    19  O          0.80862100       0.44718900       0.05818600
    20  O          0.19137900       0.55281100       0.94181400
    21  C          0.82199160       0.86437170       0.35543110
    22  C          0.17800840       0.13562830       0.64456890
    23  H          0.86220000       0.92420000       0.37921400
    24  H          0.13780000       0.07580000       0.62078600
    25  H          0.75120000       0.93320000       0.32061300
    26  H          0.24880000       0.06680000       0.67938700
    27  H          0.88530000       0.79730000       0.32161700
    28  H          0.11470000       0.20270000       0.67838300
    29  C          0.75441140       0.78787130       0.42765800
    30  C          0.24558860       0.21212870       0.57234200
    31  C          0.63467190       0.87135190       0.47425120
    32  C          0.36532810       0.12864810       0.52574880
    33  H          0.56020000       0.91120000       0.43281600
    34  H          0.43980000       0.08880000       0.56718400
    35  H          0.65520000       0.95330000       0.48661500
    36  H          0.34480000       0.04670000       0.51338500
    37  H          0.61820000       0.81020000       0.52221400
    38  H          0.38180000       0.18980000       0.47778600
    39  O          0.79481100       0.66537900       0.44777600
    40  O          0.20518900       0.33462100       0.55222400
    41  C          0.84944110       0.29141110       0.41441700
    42  C          0.15055890       0.70858890       0.58558300
    43  C          0.90958120       0.22339120       0.48690700
    44  C          0.09041880       0.77660880       0.51309300
    45  H          0.98921600       0.24651500       0.50151000
    46  H          0.01078400       0.75348500       0.49849000
    47  C          0.86760120       0.11882120       0.54340700
    48  C          0.13239880       0.88117880       0.45659300
    49  C          0.84227120       0.02828120       0.59584700
    50  C          0.15772880       0.97171880       0.40415300
    51  C          0.81699120       0.92659880       0.65773700
    52  C          0.18300880       0.07340120       0.34226300
    53  C          0.79756120       0.83749880       0.71383700
    54  C          0.20243880       0.16250120       0.28616300
    55  C          0.78151120       0.73530880       0.78305700
    56  C          0.21848880       0.26469120       0.21694300
    57  H          0.85061500       0.70838500       0.82701000
    58  H          0.14938500       0.29161500       0.17299000
    59  C          0.67939110       0.67450890       0.79287700
    60  C          0.32060890       0.32549110       0.20712300
    61  C          0.57369120       0.70822890       0.73498700
    62  C          0.42630880       0.29177110       0.26501300
    63  C          0.47700120       0.72464880       0.69295700
    64  C          0.52299880       0.27535120       0.30704300
    65  C          0.36639120       0.73206880       0.64917700
    66  C          0.63360880       0.26793120       0.35082300
    67  C          0.26768120       0.73057890       0.61469700
    68  C          0.73231880       0.26942110       0.38530300
    69  C          0.89968120       0.40107120       0.35578700
    70  C          0.10031880       0.59892880       0.64421300
    71  H          0.92420000       0.37640000       0.29820000
    72  H          0.07580000       0.62360000       0.70180000
    73  H          0.82650000       0.48880000       0.35080000
    74  H          0.17350000       0.51120000       0.64920000
    75  C          0.07338110       0.50924110       0.34245700
    76  C          0.92661890       0.49075890       0.65754300
    77  C          0.26761110       0.60010110       0.35282700
    78  C          0.73238890       0.39989890       0.64717300
    79  C          0.24668120       0.69917110       0.27986700
    80  C          0.75331880       0.30082890       0.72013300
    81  H          0.16651400       0.71631400       0.24669000
    82  H          0.83348600       0.28368600       0.75331000
    83  C          0.33931120       0.77626110       0.25368700
    84  C          0.66068880       0.22373890       0.74631300
    85  H          0.32321500       0.84371600       0.20381000
    86  H          0.67678500       0.15628400       0.79619000
    87  C          0.45220120       0.75570120       0.30048700
    88  C          0.54779880       0.24429880       0.69951300
    89  C          0.47363120       0.65649120       0.37372800
    90  C          0.52636880       0.34350880       0.62627200
    91  H          0.55311500       0.64091500       0.40699000
    92  H          0.44688500       0.35908500       0.59301000
    93  C          0.38188120       0.57969120       0.39932700
    94  C          0.61811880       0.42030880       0.60067300
    95  H          0.39861500       0.51181500       0.44941000
    96  H          0.60138500       0.48818500       0.55059000
    97  C          0.53151140       0.92563140       0.20358800
    98  C          0.46848860       0.07436860       0.79641200
    99  H          0.53270000       0.88080000       0.15490000
   100  H          0.46730000       0.11920000       0.84510000
   101  H          0.60630000       0.96870000       0.19520000
   102  H          0.39370000       0.03130000       0.80480000
   103  H          0.44340000      -0.00470000       0.20830000
   104  H          0.55660000       0.00470000       0.79170000
   105  C          0.67280120       0.56328880       0.86799700
   106  C          0.32719880       0.43671120       0.13200300
   107  H          0.70060000       0.47400000       0.84840000
   108  H          0.29940000       0.52600000       0.15160000
   109  H          0.73810000       0.56050000       0.91010000
   110  H          0.26190000       0.43950000       0.08990000
   111  C          0.49603120       0.69256880       0.95180700
   112  C          0.50396880       0.30743120       0.04819300
   113  C          0.27889120       0.82476890       0.01536700
   114  C          0.72110880       0.17523110       0.98463300
   115  C          0.31609120       0.94308880       0.01715700
   116  C          0.68390880       0.05691120       0.98284300
   117  H          0.40111600       0.95248500      -0.00871000
   118  H          0.59888400       0.04751500       0.00871000
   119  C          0.22930120       0.04480120       0.05776700
   120  C          0.77069880       0.95519880       0.94223300
   121  H          0.25391500       0.12631500       0.05999000
   122  H          0.74608500       0.87368500       0.94001000
   123  C          0.10378120       0.03192110       0.09651700
   124  C          0.89621880       0.96807890       0.90348300
   125  C          0.06592120       0.91435880       0.09503700
   126  C          0.93407880       0.08564120       0.90496300
   127  H          0.97818600       0.90498700       0.12168000
   128  H          0.02181400       0.09501300       0.87832000
   129  C          0.15359120       0.81220880       0.05453700
   130  C          0.84640880       0.18779120       0.94546300
   131  H          0.12631400       0.73398500       0.05239000
   132  H          0.87368600       0.26601500       0.94761000
   133  C          0.90640860       0.12372140       0.18389900
   134  C          0.09359140       0.87627860       0.81610100
   135  H          0.84260000       0.10540000       0.14930000
   136  H          0.15740000       0.89460000       0.85070000
   137  H          0.86100000       0.20690000       0.20760000
   138  H          0.13900000       0.79310000       0.79240000
   139  H          0.93450000       0.04690000       0.23050000
   140  H          0.06550000       0.95310000       0.76950000
   141  N          0.17806100       0.51843100       0.38362600
   142  N          0.82193900       0.48156900       0.61637400
   143  H          0.19200000       0.46870000       0.43460000
   144  H          0.80800000       0.53130000       0.56540000
   145  N          0.35965100       0.71943900       0.97193600
   146  N          0.64034900       0.28056100       0.02806400
   147  H          0.31710000       0.66630000       0.95650000
   148  H          0.68290000       0.33370000       0.04350000
   149  O          0.01720800       0.41383800       0.39044500
   150  O          0.98279200       0.58616200       0.60955500
   151  O          0.03284900       0.57217900       0.27384500
   152  O          0.96715100       0.42782100       0.72615500
   153  O          0.54911900       0.82655900       0.28006600
   154  O          0.45088100       0.17344100       0.71993400
   155  O          0.53625900       0.58613200       0.90799500
   156  O          0.46374100       0.41386800       0.09200500
   157  O          0.57372900       0.75144100       0.96849600
   158  O          0.42627100       0.24855900       0.03150400
   159  O          0.02432900       0.14120900       0.13196600
   160  O          0.97567100       0.85879100       0.86803400
