data_EMONAW
_symmetry_space_group_name_H-M    'P1'
_symmetry_Int_Tables_number       1
loop_
_symmetry_equiv_pos_site_id
_symmetry_equiv_pos_as_xyz
1 x,y,z
_cell_length_a                   5.609212
_cell_length_b                   25.0185
_cell_length_c                   9.789719
_cell_angle_alpha                90.0
_cell_angle_beta                 103.943
_cell_angle_gamma                90.0
loop_
_atom_site_label
_atom_site_type_symbol
_atom_site_fract_x
_atom_site_fract_y
_atom_site_fract_z
     1  Br         0.30185000       0.29472100       0.68433000
     2  Br         0.69815000       0.79472100       0.81567000
     3  Br         0.69815000       0.70527900       0.31567000
     4  Br         0.30185000       0.20527900       0.18433000
     5  N          0.70030000       0.38776000       0.30521700
     6  N          0.29970000       0.88776000       0.19478300
     7  N          0.29970000       0.61224000       0.69478300
     8  N          0.70030000       0.11224000       0.80521700
     9  H          0.51100000       0.39910000       0.27750000
    10  H          0.48900000       0.89910000       0.22250000
    11  H          0.48900000       0.60090000       0.72250000
    12  H          0.51100000       0.10090000       0.77750000
    13  C          0.74140000       0.37198000       0.15520000
    14  C          0.25860000       0.87198000       0.34480000
    15  C          0.25860000       0.62802000       0.84480000
    16  C          0.74140000       0.12802000       0.65520000
    17  H          0.88460000       0.39140000       0.14060000
    18  H          0.11540000       0.89140000       0.35940000
    19  H          0.11540000       0.60860000       0.85940000
    20  H          0.88460000       0.10860000       0.64060000
    21  O          0.30720000       0.35695000       0.05381400
    22  O          0.69280000       0.85695000       0.44618600
    23  O          0.69280000       0.64305000       0.94618600
    24  O          0.30720000       0.14305000       0.55381400
    25  N          0.23330000       0.32407000       0.93561800
    26  N          0.76670000       0.82407000       0.56438200
    27  N          0.76670000       0.67593000       0.06438200
    28  N          0.23330000       0.17593000       0.43561800
    29  C          0.52340000       0.38839000       0.04220000
    30  C          0.47660000       0.88839000       0.45780000
    31  C          0.47660000       0.61161000       0.95780000
    32  C          0.52340000       0.11161000       0.54220000
    33  H          0.49160000       0.42660000       0.04820000
    34  H          0.50840000       0.92660000       0.45180000
    35  H          0.50840000       0.57340000       0.95180000
    36  H          0.49160000       0.07340000       0.54820000
    37  C          0.35840000       0.33328000       0.84720000
    38  C          0.64160000       0.83328000       0.65280000
    39  C          0.64160000       0.66672000       0.15280000
    40  C          0.35840000       0.16672000       0.34720000
    41  C          0.69240000       0.33687000       0.37620000
    42  C          0.30760000       0.83687000       0.12380000
    43  C          0.30760000       0.66313000       0.62380000
    44  C          0.69240000       0.16313000       0.87620000
    45  H          0.74850000       0.34110000       0.47740000
    46  H          0.25150000       0.84110000       0.02260000
    47  H          0.25150000       0.65890000       0.52260000
    48  H          0.74850000       0.15890000       0.97740000
    49  H          0.52570000       0.32290000       0.35500000
    50  H          0.47430000       0.82290000       0.14500000
    51  H          0.47430000       0.67710000       0.64500000
    52  H          0.52570000       0.17710000       0.85500000
    53  C          0.84940000       0.30188000       0.32620000
    54  C          0.15060000       0.80188000       0.17380000
    55  C          0.15060000       0.69812000       0.67380000
    56  C          0.84940000       0.19812000       0.82620000
    57  H          0.81020000       0.26490000       0.34140000
    58  H          0.18980000       0.76490000       0.15860000
    59  H          0.18980000       0.73510000       0.65860000
    60  H          0.81020000       0.23510000       0.84140000
    61  H          0.01920000       0.30850000       0.37240000
    62  H         -0.01920000       0.80850000       0.12760000
    63  H         -0.01920000       0.69150000       0.62760000
    64  H          0.01920000       0.19150000       0.87240000
    65  C          0.80340000       0.31337000       0.16820000
    66  C          0.19660000       0.81337000       0.33180000
    67  C          0.19660000       0.68663000       0.83180000
    68  C          0.80340000       0.18663000       0.66820000
    69  H          0.94850000       0.30580000       0.13460000
    70  H          0.05150000       0.80580000       0.36540000
    71  H          0.05150000       0.69420000       0.86540000
    72  H          0.94850000       0.19420000       0.63460000
    73  H          0.66790000       0.29190000       0.11530000
    74  H          0.33210000       0.79190000       0.38470000
    75  H          0.33210000       0.70810000       0.88470000
    76  H          0.66790000       0.20810000       0.61530000
    77  C          0.55640000       0.37419000       0.89620000
    78  C          0.44360000       0.87419000       0.60380000
    79  C          0.44360000       0.62581000       0.10380000
    80  C          0.55640000       0.12581000       0.39620000
    81  H          0.53080000       0.40510000       0.83430000
    82  H          0.46920000       0.90510000       0.66570000
    83  H          0.46920000       0.59490000       0.16570000
    84  H          0.53080000       0.09490000       0.33430000
    85  H          0.71720000       0.35930000       0.90050000
    86  H          0.28280000       0.85930000       0.59950000
    87  H          0.28280000       0.64070000       0.09950000
    88  H          0.71720000       0.14070000       0.40050000
    89  O          0.26120000       0.43145000       0.32671300
    90  O          0.73880000       0.93145000       0.17328700
    91  O          0.73880000       0.56855000       0.67328700
    92  O          0.26120000       0.06855000       0.82671300
    93  O          0.07430000       0.43215000       0.50471400
    94  O          0.92570000       0.93215000      -0.00471400
    95  O          0.92570000       0.56785000       0.49528600
    96  O          0.07430000       0.06785000       0.00471400
    97  H         -0.01980000       0.41120000       0.45350000
    98  H          0.01980000       0.91120000       0.04650000
    99  H          0.01980000       0.58880000       0.54650000
   100  H         -0.01980000       0.08880000       0.95350000
   101  C          0.42930000       0.48447000       0.52820000
   102  C          0.57070000       0.98447000       0.97180000
   103  C          0.57070000       0.51553000       0.47180000
   104  C          0.42930000       0.01553000       0.02820000
   105  H          0.44640000       0.48640000       0.62510000
   106  H          0.55360000       0.98640000       0.87490000
   107  H          0.55360000       0.51360000       0.37490000
   108  H          0.44640000       0.01360000       0.12510000
   109  C          0.24340000       0.44577000       0.44620000
   110  C          0.75660000       0.94577000       0.05380000
   111  C          0.75660000       0.55423000       0.55380000
   112  C          0.24340000       0.05423000       0.94620000
   113  O          0.95020000       0.44575000       0.72911300
   114  O          0.04980000       0.94575000       0.77088700
   115  O          0.04980000       0.55425000       0.27088700
   116  O          0.95020000       0.05425000       0.22911300
   117  H          0.02910000       0.43900000       0.67090000
   118  H         -0.02910000       0.93900000       0.82910000
   119  H         -0.02910000       0.56100000       0.32910000
   120  H          0.02910000       0.06100000       0.17090000
   121  O          0.28230000       0.49545000       0.83041400
   122  O          0.71770000      -0.00455000       0.66958600
   123  O          0.71770000       0.50455000       0.16958600
   124  O          0.28230000       0.00455000       0.33041400
   125  C          0.08040000       0.47818000       0.82811900
   126  C          0.91960000       0.97818000       0.67188100
   127  C          0.91960000       0.52182000       0.17188100
   128  C          0.08040000       0.02182000       0.32811900
   129  C          0.94940000       0.49087000       0.93841700
   130  C          0.05060000       0.99087000       0.56158300
   131  C          0.05060000       0.50913000       0.06158300
   132  C          0.94940000       0.00913000       0.43841700
   133  H          0.78040000       0.48520000       0.91720000
   134  H          0.21960000       0.98520000       0.58280000
   135  H          0.21960000       0.51480000       0.08280000
   136  H          0.78040000       0.01480000       0.41720000
