data_EMUFEZ
_symmetry_space_group_name_H-M    'P1'
_symmetry_Int_Tables_number       1
loop_
_symmetry_equiv_pos_site_id
_symmetry_equiv_pos_as_xyz
1 x,y,z
_cell_length_a                   10.76583
_cell_length_b                   5.0974711
_cell_length_c                   11.70853
_cell_angle_alpha                90.0
_cell_angle_beta                 110.5473
_cell_angle_gamma                90.0
loop_
_atom_site_label
_atom_site_type_symbol
_atom_site_fract_x
_atom_site_fract_y
_atom_site_fract_z
     1  Cl         0.18596400       0.81083900       0.60184400
     2  Cl         0.81403600       0.31083900       0.39815600
     3  S          0.58584700       0.69963140       0.12852500
     4  S          0.41415300       0.19963140       0.87147500
     5  H          0.50320000       0.54050000       0.11230000
     6  H          0.49680000       0.04050000       0.88770000
     7  N          0.62947150       0.82394000       0.41444140
     8  N          0.37052850       0.32394000       0.58555860
     9  H          0.69220000       0.94760000       0.41420000
    10  H          0.30780000       0.44760000       0.58580000
    11  H          0.66720000       0.68360000       0.41020000
    12  H          0.33280000       0.18360000       0.58980000
    13  H          0.62320000       0.81860000       0.48520000
    14  H          0.37680000       0.31860000       0.51480000
    15  O          0.46704140       0.42683000       0.39676120
    16  O          0.53295860       0.92683000       0.60323880
    17  C          0.49630170       0.84214000       0.31758160
    18  C          0.50369830       0.34214000       0.68241840
    19  H          0.45220000      -0.02550000       0.34720000
    20  H          0.54780000       0.47450000       0.65280000
    21  C          0.42218180       0.58464000       0.31327170
    22  C          0.57781820       0.08464000       0.68672830
    23  C          0.50372000       0.92784000       0.19614180
    24  C          0.49628000       0.42784000       0.80385820
    25  H          0.55620000       0.08760000       0.20720000
    26  H          0.44380000       0.58760000       0.79280000
    27  H          0.41620000       0.95350000       0.14020000
    28  H          0.58380000       0.45350000       0.85980000
    29  O          0.31691150       0.56213000       0.22096160
    30  O          0.68308850       0.06213000       0.77903840
    31  S          0.83204400       0.19485140       0.08833500
    32  S          0.16795600       0.69485140       0.91166500
    33  H          0.76070000       0.19370000      -0.00820000
    34  H          0.23930000       0.69370000       0.00820000
    35  N          0.97907830       0.83766000       0.33330170
    36  N          0.02092170       0.33766000       0.66669830
    37  H          0.92570000       0.96340000       0.34120000
    38  H          0.07430000       0.46340000       0.65880000
    39  H          0.93170000       0.70440000       0.31820000
    40  H          0.06830000       0.20440000       0.68180000
    41  H          0.04820000       0.81840000       0.40320000
    42  H          0.95180000       0.31840000       0.59680000
    43  O          0.13279170       0.25783000       0.35568150
    44  O          0.86720830       0.75783000       0.64431850
    45  O          0.18161160       0.16424000       0.18983160
    46  O          0.81838840       0.66424000       0.81016840
    47  H          0.23830000       0.34370000       0.21420000
    48  H          0.76170000       0.84370000       0.78580000
    49  C          0.12393190       0.12274000       0.26762000
    50  C          0.87606810       0.62274000       0.73238000
    51  C          0.03642000       0.87776000       0.23662000
    52  C          0.96358000       0.37776000       0.76338000
    53  H          0.08720000       0.72240000       0.23520000
    54  H          0.91280000       0.22240000       0.76480000
    55  C          0.93008000       0.89706000       0.11022000
    56  C          0.06992000       0.39706000       0.88978000
    57  H          0.87150000       0.74670000       0.09740000
    58  H          0.12850000       0.24670000       0.90260000
    59  H          0.97230000       0.89040000       0.04940000
    60  H          0.02770000       0.39040000       0.95060000
