data_ENADAZ
_symmetry_space_group_name_H-M    'P1'
_symmetry_Int_Tables_number       1
loop_
_symmetry_equiv_pos_site_id
_symmetry_equiv_pos_as_xyz
1 x,y,z
_cell_length_a                   9.0431
_cell_length_b                   34.315
_cell_length_c                   9.5242
_cell_angle_alpha                90.0
_cell_angle_beta                 105.403
_cell_angle_gamma                90.0
loop_
_atom_site_label
_atom_site_type_symbol
_atom_site_fract_x
_atom_site_fract_y
_atom_site_fract_z
     1  Br         0.27298900       0.00714200       0.06750900
     2  Br         0.22701100       0.50714200       0.43249100
     3  Br         0.72701100       0.99285800       0.93249100
     4  Br         0.77298900       0.49285800       0.56750900
     5  Br         0.51399100       0.88346700       0.45325110
     6  Br        -0.01399100       0.38346700       0.04674890
     7  Br         0.48600900       0.11653300       0.54674890
     8  Br         0.01399100       0.61653300       0.95325110
     9  Br         0.93157900       0.84571800       0.50892100
    10  Br         0.56842100       0.34571800      -0.00892100
    11  Br         0.06842100       0.15428200       0.49107900
    12  Br         0.43157900       0.65428200       0.00892100
    13  Br         0.20263140       0.73935700       0.95403870
    14  Br         0.29736860       0.23935700       0.54596130
    15  Br         0.79736860       0.26064300       0.04596130
    16  Br         0.70263140       0.76064300       0.45403870
    17  S          0.93098000       0.87491500       0.07462000
    18  S          0.56902000       0.37491500       0.42538000
    19  S          0.06902000       0.12508500       0.92538000
    20  S          0.43098000       0.62508500       0.57462000
    21  O          0.49976000       0.96403830       0.29987000
    22  O          0.00024000       0.46403830       0.20013000
    23  O          0.50024000       0.03596170       0.70013000
    24  O         -0.00024000       0.53596170       0.79987000
    25  H          0.57740000       0.94970000       0.32680000
    26  H          0.92260000       0.44970000       0.17320000
    27  H          0.42260000       0.05030000       0.67320000
    28  H          0.07740000       0.55030000       0.82680000
    29  O          0.89874000       0.85240810       0.18986000
    30  O          0.60126000       0.35240810       0.31014000
    31  O          0.10126000       0.14759190       0.81014000
    32  O          0.39874000       0.64759190       0.68986000
    33  O          0.81925000       0.90258840      -0.00086000
    34  O          0.68075000       0.40258840       0.50086000
    35  O          0.18075000       0.09741160       0.00086000
    36  O          0.31925000       0.59741160       0.49914000
    37  O          0.11168000       0.77510830       0.65183000
    38  O          0.38832000       0.27510830       0.84817000
    39  O          0.88832000       0.22489170       0.34817000
    40  O          0.61168000       0.72489170       0.15183000
    41  H          0.09980000       0.75130000       0.66660000
    42  H          0.40020000       0.25130000       0.83340000
    43  H          0.90020000       0.24870000       0.33340000
    44  H          0.59980000       0.74870000       0.16660000
    45  C          0.37738000       0.94238000       0.25418000
    46  C          0.12262000       0.44238000       0.24582000
    47  C          0.62262000       0.05762000       0.74582000
    48  C          0.87738000       0.55762000       0.75418000
    49  C          0.25147000       0.95769810       0.14418000
    50  C          0.24853000       0.45769810       0.35582000
    51  C          0.74853000       0.04230190       0.85582000
    52  C          0.75147000       0.54230190       0.64418000
    53  C          0.11757000       0.93726810       0.09287000
    54  C          0.38243000       0.43726810       0.40713000
    55  C          0.88243000       0.06273190       0.90713000
    56  C          0.61757000       0.56273190       0.59287000
    57  H          0.03520000       0.94840000       0.02040000
    58  H          0.46480000       0.44840000       0.47960000
    59  H          0.96480000       0.05160000       0.97960000
    60  H          0.53520000       0.55160000       0.52040000
    61  C          0.10207000       0.90048000       0.14617000
    62  C          0.39793000       0.40048000       0.35383000
    63  C          0.89793000       0.09952000       0.85383000
    64  C          0.60207000       0.59952000       0.64617000
    65  C          0.21908000       0.88468000       0.25638000
    66  C          0.28092000       0.38468000       0.24362000
    67  C          0.78092000       0.11532000       0.74362000
    68  C          0.71908000       0.61532000       0.75638000
    69  H          0.20820000       0.85990000       0.29620000
    70  H          0.29180000       0.35990000       0.20380000
    71  H          0.79180000       0.14010000       0.70380000
    72  H          0.70820000       0.64010000       0.79620000
    73  C          0.35198000       0.90628000       0.30648000
    74  C          0.14802000       0.40628000       0.19352000
    75  C          0.64802000       0.09372000       0.69352000
    76  C          0.85198000       0.59372000       0.80648000
    77  C          0.06319000       0.79548000       0.74341000
    78  C          0.43681000       0.29548000       0.75659000
    79  C          0.93681000       0.20452000       0.25659000
    80  C          0.56319000       0.70452000       0.24341000
    81  C          0.97921000       0.83058000       0.70662000
    82  C          0.52079000       0.33058000       0.79338000
    83  C          0.02079000       0.16942000       0.29338000
    84  C          0.47921000       0.66942000       0.20662000
    85  C          0.93633000       0.85423810       0.80222000
    86  C          0.56367000       0.35423810       0.69778000
    87  C          0.06367000       0.14576190       0.19778000
    88  C          0.43633000       0.64576190       0.30222000
    89  H          0.88370000       0.87790000       0.77050000
    90  H          0.61630000       0.37790000       0.72950000
    91  H          0.11630000       0.12210000       0.22950000
    92  H          0.38370000       0.62210000       0.27050000
    93  C          0.97122000       0.84318000       0.94932000
    94  C          0.52878000       0.34318000       0.55068000
    95  C          0.02878000       0.15682000       0.05068000
    96  C          0.47122000       0.65682000       0.44932000
    97  C          0.05019000       0.80918000      -0.00609000
    98  C          0.44981000       0.30918000       0.50609000
    99  C          0.94981000       0.19082000       0.00609000
   100  C          0.55019000       0.69082000       0.49391000
   101  H          0.07330000       0.80150000       0.09330000
   102  H          0.42670000       0.30150000       0.40670000
   103  H          0.92670000       0.19850000       0.90670000
   104  H          0.57330000       0.69850000       0.59330000
   105  C          0.09519000       0.78638000       0.89409000
   106  C          0.40481000       0.28638000       0.60591000
   107  C          0.90481000       0.21362000       0.10591000
   108  C          0.59519000       0.71362000       0.39409000
   109  C          0.30961800       0.77474000       0.40580000
   110  C          0.19038200       0.27474000       0.09420000
   111  C          0.69038200       0.22526000       0.59420000
   112  C          0.80961800       0.72526000       0.90580000
   113  H          0.37160000       0.78720000       0.34850000
   114  H          0.12840000       0.28720000       0.15150000
   115  H          0.62840000       0.21280000       0.65150000
   116  H          0.87160000       0.71280000       0.84850000
   117  H          0.29960000       0.74690000       0.38410000
   118  H          0.20040000       0.24690000       0.11590000
   119  H          0.70040000       0.25310000       0.61590000
   120  H          0.79960000       0.75310000       0.88410000
   121  H          0.35960000       0.77850000       0.51020000
   122  H          0.14040000       0.27850000      -0.01020000
   123  H          0.64040000       0.22150000       0.48980000
   124  H          0.85960000       0.72150000       0.01020000
   125  O          0.17461600       0.79066000       0.37498400
   126  O          0.32538400       0.29066000       0.12501600
   127  O          0.82538400       0.20934000       0.62501600
   128  O          0.67461600       0.70934000       0.87498400
   129  H          0.12460000       0.78180000       0.43060000
   130  H          0.37540000       0.28180000       0.06940000
   131  H          0.87540000       0.21820000       0.56940000
   132  H          0.62460000       0.71820000       0.93060000
   133  N          0.22817000       0.04554180       0.55347000
   134  N          0.27183000       0.54554180       0.94653000
   135  N          0.77183000       0.95445820       0.44653000
   136  N          0.72817000       0.45445820       0.05347000
   137  N          0.45431000       0.20642000       0.95849000
   138  N          0.04569000       0.70642000       0.54151000
   139  N          0.54569000       0.79358000       0.04151000
   140  N          0.95431000       0.29358000       0.45849000
   141  C          0.18539000       0.03953000       0.41059000
   142  C          0.31461000       0.53953000       0.08941000
   143  C          0.81461000       0.96047000       0.58941000
   144  C          0.68539000       0.46047000       0.91059000
   145  H          0.26190000       0.03380000       0.36200000
   146  H          0.23810000       0.53380000       0.13800000
   147  H          0.73810000       0.96620000       0.63800000
   148  H          0.76190000       0.46620000       0.86200000
   149  C          0.03469000       0.04143000       0.33009000
   150  C          0.46531000       0.54143000       0.16991000
   151  C          0.96531000       0.95857000       0.66991000
   152  C          0.53469000       0.45857000       0.83009000
   153  H          0.00910000       0.03800000       0.22730000
   154  H          0.49090000       0.53800000       0.27270000
   155  H         -0.00910000       0.96200000       0.77270000
   156  H          0.50910000       0.46200000       0.72730000
   157  C          0.92102000       0.04822000       0.39828000
   158  C          0.57898000       0.54822000       0.10172000
   159  C          0.07898000       0.95178000       0.60172000
   160  C          0.42102000       0.45178000       0.89828000
   161  C          0.96832000       0.05372000       0.54598000
   162  C          0.53168000       0.55372000       0.95402000
   163  C          0.03168000       0.94628000       0.45402000
   164  C          0.46832000       0.44628000       0.04598000
   165  H          0.89430000       0.05880000       0.59790000
   166  H          0.60570000       0.55880000       0.90210000
   167  H          0.10570000       0.94120000       0.40210000
   168  H          0.39430000       0.44120000       0.09790000
   169  C          0.11969000       0.05202000       0.61958000
   170  C          0.38031000       0.55202000       0.88042000
   171  C          0.88031000       0.94798000       0.38042000
   172  C          0.61969000       0.44798000       0.11958000
   173  H          0.14790000       0.05570000       0.72210000
   174  H          0.35210000       0.55570000       0.77790000
   175  H          0.85210000       0.94430000       0.27790000
   176  H          0.64790000       0.44430000       0.22210000
   177  C          0.75642000       0.05182000       0.31419000
   178  C          0.74358000       0.55182000       0.18581000
   179  C          0.24358000       0.94818000       0.68581000
   180  C          0.25642000       0.44818000       0.81419000
   181  H          0.69040000       0.04690000       0.38010000
   182  H          0.80960000       0.54690000       0.11990000
   183  H          0.30960000       0.95310000       0.61990000
   184  H          0.19040000       0.45310000       0.88010000
   185  H          0.73280000       0.03170000       0.23660000
   186  H          0.76720000       0.53170000       0.26340000
   187  H          0.26720000       0.96830000       0.76340000
   188  H          0.23280000       0.46830000       0.73660000
   189  C          0.72052000       0.09142000       0.24641000
   190  C          0.77948000       0.59142000       0.25359000
   191  C          0.27948000       0.90858000       0.75359000
   192  C          0.22052000       0.40858000       0.74641000
   193  H          0.78870000       0.09640000       0.18240000
   194  H          0.71130000       0.59640000       0.31760000
   195  H          0.21130000       0.90360000       0.81760000
   196  H          0.28870000       0.40360000       0.68240000
   197  H          0.74350000       0.11130000       0.32460000
   198  H          0.75650000       0.61130000       0.17540000
   199  H          0.25650000       0.88870000       0.67540000
   200  H          0.24350000       0.38870000       0.82460000
   201  C          0.55492000       0.09612000       0.15791000
   202  C          0.94508000       0.59612000       0.34209000
   203  C          0.44508000       0.90388000       0.84209000
   204  C          0.05492000       0.40388000       0.65791000
   205  H          0.53180000       0.07600000       0.08070000
   206  H          0.96820000       0.57600000       0.41930000
   207  H          0.46820000       0.92400000       0.91930000
   208  H          0.03180000       0.42400000       0.58070000
   209  H          0.48710000       0.09140000       0.22230000
   210  H          0.01290000       0.59140000       0.27770000
   211  H          0.51290000       0.90860000       0.77770000
   212  H         -0.01290000       0.40860000       0.72230000
   213  C          0.51911000       0.13522000       0.08871000
   214  C         -0.01911000       0.63522000       0.41129000
   215  C          0.48089000       0.86478000       0.91129000
   216  C          0.01911000       0.36478000       0.58871000
   217  C          0.53018500       0.16863000       0.16841200
   218  C          0.96981500       0.66863000       0.33158800
   219  C          0.46981500       0.83137000       0.83158800
   220  C          0.03018500       0.33137000       0.66841200
   221  H          0.56090000       0.16730000       0.27180000
   222  H          0.93910000       0.66730000       0.22820000
   223  H          0.43910000       0.83270000       0.72820000
   224  H          0.06090000       0.33270000       0.77180000
   225  C          0.49708300       0.20403000       0.09981300
   226  C          0.00291700       0.70403000       0.40018700
   227  C          0.50291700       0.79597000       0.90018700
   228  C         -0.00291700       0.29597000       0.59981300
   229  H          0.50550000       0.22710000       0.15640000
   230  H         -0.00550000       0.72710000       0.34360000
   231  H          0.49450000       0.77290000       0.84360000
   232  H          0.00550000       0.27290000       0.65640000
   233  C          0.44598900       0.17493000       0.87818900
   234  C          0.05401100       0.67493000       0.62181100
   235  C          0.55401100       0.82507000       0.12181100
   236  C          0.94598900       0.32507000       0.37818900
   237  H          0.41510000       0.17690000       0.77500000
   238  H          0.08490000       0.67690000       0.72500000
   239  H          0.58490000       0.82310000       0.22500000
   240  H          0.91510000       0.32310000       0.27500000
   241  C          0.48119000       0.13993000       0.94158900
   242  C          0.01881000       0.63993000       0.55841100
   243  C          0.51881000       0.86007000       0.05841100
   244  C         -0.01881000       0.36007000       0.44158900
   245  H          0.47930000       0.11760000       0.88170000
   246  H          0.02070000       0.61760000       0.61830000
   247  H          0.52070000       0.88240000       0.11830000
   248  H          0.97930000       0.38240000       0.38170000
