data_ENEPOE
_symmetry_space_group_name_H-M    'P1'
_symmetry_Int_Tables_number       1
loop_
_symmetry_equiv_pos_site_id
_symmetry_equiv_pos_as_xyz
1 x,y,z
_cell_length_a                   27.783
_cell_length_b                   4.7064
_cell_length_c                   17.56616
_cell_angle_alpha                90.0
_cell_angle_beta                 96.0518
_cell_angle_gamma                90.0
loop_
_atom_site_label
_atom_site_type_symbol
_atom_site_fract_x
_atom_site_fract_y
_atom_site_fract_z
     1  C          0.82108000       0.75108600       0.32493000
     2  C          0.17892000       0.75108600       0.17507000
     3  C          0.32108000       0.25108600       0.32493000
     4  C          0.67892000       0.25108600       0.17507000
     5  C          0.17892000       0.24891400       0.67507000
     6  C          0.82108000       0.24891400       0.82493000
     7  C          0.67892000       0.74891400       0.67507000
     8  C          0.32108000       0.74891400       0.82493000
     9  C          0.88808000       0.06968800       0.31534000
    10  C          0.11192000       0.06968800       0.18466000
    11  C          0.38808000       0.56968800       0.31534000
    12  C          0.61192000       0.56968800       0.18466000
    13  C          0.11192000       0.93031200       0.68466000
    14  C          0.88808000       0.93031200       0.81534000
    15  C          0.61192000       0.43031200       0.68466000
    16  C          0.38808000       0.43031200       0.81534000
    17  C          0.89088000      -0.01701200       0.23873000
    18  C          0.10912000      -0.01701200       0.26127000
    19  C          0.39088000       0.48298800       0.23873000
    20  C          0.60912000       0.48298800       0.26127000
    21  C          0.10912000       0.01701200       0.76127000
    22  C          0.89088000       0.01701200       0.73873000
    23  C          0.60912000       0.51701200       0.76127000
    24  C          0.39088000       0.51701200       0.73873000
    25  C          0.82268000       0.66858800       0.24864000
    26  C          0.17732000       0.66858800       0.25136000
    27  C          0.32268000       0.16858800       0.24864000
    28  C          0.67732000       0.16858800       0.25136000
    29  C          0.17732000       0.33141200       0.75136000
    30  C          0.82268000       0.33141200       0.74864000
    31  C          0.67732000       0.83141200       0.75136000
    32  C          0.32268000       0.83141200       0.74864000
    33  H          0.80060000       0.53700000       0.22610000
    34  H          0.19940000       0.53700000       0.27390000
    35  H          0.30060000       0.03700000       0.22610000
    36  H          0.69940000       0.03700000       0.27390000
    37  H          0.19940000       0.46300000       0.77390000
    38  H          0.80060000       0.46300000       0.72610000
    39  H          0.69940000       0.96300000       0.77390000
    40  H          0.30060000       0.96300000       0.72610000
    41  C          0.85298000       0.94928800       0.35644000
    42  C          0.14702000       0.94928800       0.14356000
    43  C          0.35298000       0.44928800       0.35644000
    44  C          0.64702000       0.44928800       0.14356000
    45  C          0.14702000       0.05071200       0.64356000
    46  C          0.85298000       0.05071200       0.85644000
    47  C          0.64702000       0.55071200       0.64356000
    48  C          0.35298000       0.55071200       0.85644000
    49  H          0.85130000       0.00590000       0.40670000
    50  H          0.14870000       0.00590000       0.09330000
    51  H          0.35130000       0.50590000       0.40670000
    52  H          0.64870000       0.50590000       0.09330000
    53  H          0.14870000      -0.00590000       0.59330000
    54  H          0.85130000      -0.00590000       0.90670000
    55  H          0.64870000       0.49410000       0.59330000
    56  H          0.35130000       0.49410000       0.90670000
    57  C          0.85768000       0.78538700       0.20683000
    58  C          0.14232000       0.78538700       0.29317000
    59  C          0.35768000       0.28538700       0.20683000
    60  C          0.64232000       0.28538700       0.29317000
    61  C          0.14232000       0.21461300       0.79317000
    62  C          0.85768000       0.21461300       0.70683000
    63  C          0.64232000       0.71461300       0.79317000
    64  C          0.35768000       0.71461300       0.70683000
    65  C          0.92158000       0.28998800       0.34833000
    66  C          0.07842000       0.28998800       0.15167000
    67  C          0.42158000       0.78998800       0.34833000
    68  C          0.57842000       0.78998800       0.15167000
    69  C          0.07842000       0.71001200       0.65167000
    70  C          0.92158000       0.71001200       0.84833000
    71  C          0.57842000       0.21001200       0.65167000
    72  C          0.42158000       0.21001200       0.84833000
    73  O          0.95369810       0.39059000       0.31353000
    74  O          0.04630190       0.39059000       0.18647000
    75  O          0.45369810       0.89059000       0.31353000
    76  O          0.54630190       0.89059000       0.18647000
    77  O          0.04630190       0.60941000       0.68647000
    78  O          0.95369810       0.60941000       0.81353000
    79  O          0.54630190       0.10941000       0.68647000
    80  O          0.45369810       0.10941000       0.81353000
    81  O          0.91464840       0.36341000       0.41843000
    82  O          0.08535160       0.36341000       0.08157000
    83  O          0.41464840       0.86341000       0.41843000
    84  O          0.58535160       0.86341000       0.08157000
    85  O          0.08535160       0.63659000       0.58157000
    86  O          0.91464840       0.63659000       0.91843000
    87  O          0.58535160       0.13659000       0.58157000
    88  O          0.41464840       0.13659000       0.91843000
    89  H          0.93430000       0.48610000       0.43370000
    90  H          0.06570000       0.48610000       0.06630000
    91  H          0.43430000      -0.01390000       0.43370000
    92  H          0.56570000      -0.01390000       0.06630000
    93  H          0.06570000       0.51390000       0.56630000
    94  H          0.93430000       0.51390000       0.93370000
    95  H          0.56570000       0.01390000       0.56630000
    96  H          0.43430000       0.01390000       0.93370000
    97  O          0.92524820       0.08529000       0.19703000
    98  O          0.07475180       0.08529000       0.30297000
    99  O          0.42524820       0.58529000       0.19703000
   100  O          0.57475180       0.58529000       0.30297000
   101  O          0.07475180       0.91471000       0.80297000
   102  O          0.92524820       0.91471000       0.69703000
   103  O          0.57475180       0.41471000       0.80297000
   104  O          0.42524820       0.41471000       0.69703000
   105  H          0.94230000       0.19920000       0.22290000
   106  H          0.05770000       0.19920000       0.27710000
   107  H          0.44230000       0.69920000       0.22290000
   108  H          0.55770000       0.69920000       0.27710000
   109  H          0.05770000       0.80080000       0.77710000
   110  H          0.94230000       0.80080000       0.72290000
   111  H          0.55770000       0.30080000       0.77710000
   112  H          0.44230000       0.30080000       0.72290000
   113  I          0.85638800       0.67741100       0.09006200
   114  I          0.14361200       0.67741100       0.40993800
   115  I          0.35638800       0.17741100       0.09006200
   116  I          0.64361200       0.17741100       0.40993800
   117  I          0.14361200       0.32258900       0.90993800
   118  I          0.85638800       0.32258900       0.59006200
   119  I          0.64361200       0.82258900       0.90993800
   120  I          0.35638800       0.82258900       0.59006200
   121  I          0.76865800       0.57620900       0.38907200
   122  I          0.23134200       0.57620900       0.11092800
   123  I          0.26865800       0.07620900       0.38907200
   124  I          0.73134200       0.07620900       0.11092800
   125  I          0.23134200       0.42379100       0.61092800
   126  I          0.76865800       0.42379100       0.88907200
   127  I          0.73134200       0.92379100       0.61092800
   128  I          0.26865800       0.92379100       0.88907200
   129  C          0.00562000       0.88788700       0.43164000
   130  C          0.99438000       0.88788700       0.06836000
   131  C          0.50562000       0.38788700       0.43164000
   132  C          0.49438000       0.38788700       0.06836000
   133  C          0.99438000       0.11211300       0.56836000
   134  C          0.00562000       0.11211300       0.93164000
   135  C          0.49438000       0.61211300       0.56836000
   136  C          0.50562000       0.61211300       0.93164000
   137  H          0.01020000       0.81530000       0.38370000
   138  H          0.98980000       0.81530000       0.11630000
   139  H          0.51020000       0.31530000       0.38370000
   140  H          0.48980000       0.31530000       0.11630000
   141  H          0.98980000       0.18470000       0.61630000
   142  H          0.01020000       0.18470000       0.88370000
   143  H          0.48980000       0.68470000       0.61630000
   144  H          0.51020000       0.68470000       0.88370000
   145  C          0.03442000       0.11021300       0.46104000
   146  C          0.96558000       0.11021300       0.03896000
   147  C          0.53442000       0.61021300       0.46104000
   148  C          0.46558000       0.61021300       0.03896000
   149  C          0.96558000       0.88978700       0.53896000
   150  C          0.03442000       0.88978700       0.96104000
   151  C          0.46558000       0.38978700       0.53896000
   152  C          0.53442000       0.38978700       0.96104000
   153  H          0.05820000       0.18160000       0.43280000
   154  H          0.94180000       0.18160000       0.06720000
   155  H          0.55820000       0.68160000       0.43280000
   156  H          0.44180000       0.68160000       0.06720000
   157  H          0.94180000       0.81840000       0.56720000
   158  H          0.05820000       0.81840000       0.93280000
   159  H          0.44180000       0.31840000       0.56720000
   160  H          0.55820000       0.31840000       0.93280000
   161  N          0.97147810       0.77489000       0.47033000
   162  N          0.02852190       0.77489000       0.02967000
   163  N          0.47147810       0.27489000       0.47033000
   164  N          0.52852190       0.27489000       0.02967000
   165  N          0.02852190       0.22511000       0.52967000
   166  N          0.97147810       0.22511000       0.97033000
   167  N          0.52852190       0.72511000       0.52967000
   168  N          0.47147810       0.72511000       0.97033000
