data_ENEPIY
_symmetry_space_group_name_H-M    'P1'
_symmetry_Int_Tables_number       1
loop_
_symmetry_equiv_pos_site_id
_symmetry_equiv_pos_as_xyz
1 x,y,z
_cell_length_a                   3.7777
_cell_length_b                   10.38217
_cell_length_c                   13.452
_cell_angle_alpha                68.434
_cell_angle_beta                 85.156
_cell_angle_gamma                80.266
loop_
_atom_site_label
_atom_site_type_symbol
_atom_site_fract_x
_atom_site_fract_y
_atom_site_fract_z
     1  C          0.73551000       0.11934000       0.56547000
     2  C          0.26449000       0.88066000       0.43453000
     3  H          0.67210000       0.09570000       0.50810000
     4  H          0.32790000       0.90430000       0.49190000
     5  C          0.78211000       0.25554000       0.54877000
     6  C          0.21789000       0.74446000       0.45123000
     7  C          0.93441000       0.18844000       0.73357000
     8  C          0.06559000       0.81156000       0.26643000
     9  C          0.87911000       0.05014000       0.75347000
    10  C          0.12089000       0.94986000       0.24653000
    11  C          0.78311000       0.01834000       0.66687000
    12  C          0.21689000       0.98166000       0.33313000
    13  C          0.88401000       0.29084000       0.63117000
    14  C          0.11599000       0.70916000       0.36883000
    15  H          0.91940000       0.38410000       0.61820000
    16  H          0.08060000       0.61590000       0.38180000
    17  C          0.04611000       0.22464000       0.82297000
    18  C          0.95389000       0.77536000       0.17703000
    19  O          0.91733000       0.94537000       0.84998000
    20  O          0.08267000       0.05463000       0.15002000
    21  H         -0.02430000       0.97630000       0.89490000
    22  H          0.02430000       0.02370000       0.10510000
    23  O          0.08018000       0.14083000       0.91448000
    24  O          0.91982000       0.85917000       0.08552000
    25  O          0.10697000       0.35583000       0.79328000
    26  O          0.89303000       0.64417000       0.20672000
    27  H          0.16880000       0.37000000       0.84650000
    28  H          0.83120000       0.63000000       0.15350000
    29  Cl         0.71788000       0.84867100       0.68766300
    30  Cl         0.28212000       0.15132900       0.31233700
    31  Cl         0.71038000       0.38377900       0.42175300
    32  Cl         0.28962000       0.61622100       0.57824700
    33  C          0.48731000       0.36284000       0.03343000
    34  C          0.51269000       0.63716000       0.96657000
    35  H          0.48240000       0.26480000       0.05990000
    36  H          0.51760000       0.73520000       0.94010000
    37  C          0.62141000       0.42224000       0.09703000
    38  C          0.37859000       0.57776000       0.90297000
    39  H          0.70600000       0.36350000       0.16600000
    40  H          0.29400000       0.63650000       0.83400000
    41  N          0.36538000       0.44103000       0.93597000
    42  N          0.63462000       0.55897000       0.06403000
