data_ENEPEU
_symmetry_space_group_name_H-M    'P1'
_symmetry_Int_Tables_number       1
loop_
_symmetry_equiv_pos_site_id
_symmetry_equiv_pos_as_xyz
1 x,y,z
_cell_length_a                   4.1833
_cell_length_b                   8.7697
_cell_length_c                   15.36612
_cell_angle_alpha                94.103
_cell_angle_beta                 95.783
_cell_angle_gamma                99.683
loop_
_atom_site_label
_atom_site_type_symbol
_atom_site_fract_x
_atom_site_fract_y
_atom_site_fract_z
     1  C          0.13061500       0.91094000       0.88344000
     2  C          0.86938500       0.08906000       0.11656000
     3  H          0.27630000       0.90370000       0.93390000
     4  H          0.72370000       0.09630000       0.06610000
     5  C          0.07281500       0.05306000       0.85664000
     6  C          0.92718500       0.94694000       0.14336000
     7  C          0.86501400       0.06716000       0.78484000
     8  C          0.13498600       0.93284000       0.21516000
     9  H          0.83140000       0.16680000       0.76950000
    10  H          0.16860000       0.83320000       0.23050000
    11  C          0.75261500       0.78873000       0.75944000
    12  C          0.24738500       0.21127000       0.24056000
    13  H          0.64030000       0.69660000       0.72600000
    14  H          0.35970000       0.30340000       0.27400000
    15  C         -0.03848500       0.78044000       0.83154000
    16  C          0.03848500       0.21956000       0.16846000
    17  C          0.70351500       0.93453000       0.73454000
    18  C          0.29648500       0.06547000       0.26546000
    19  O          0.48991300       0.93544000       0.66233000
    20  O          0.51008700       0.06456000       0.33767000
    21  H          0.47320000       0.02760000       0.65380000
    22  H          0.52680000       0.97240000       0.34620000
    23  Br         0.30595170       0.23626700       0.92383400
    24  Br         0.69404830       0.76373300       0.07616600
    25  Br         0.02797190       0.58113300       0.86465500
    26  Br        -0.02797190       0.41886700       0.13534500
    27  C          0.07131400       0.44057000       0.52394000
    28  C          0.92868600       0.55943000       0.47606000
    29  C          0.25920000       0.19489000       0.52825000
    30  C          0.74080000       0.80511000       0.47175000
    31  H          0.29460000       0.10270000       0.49700000
    32  H          0.70540000       0.89730000       0.50300000
    33  C          0.29511800       0.34608000       0.65614000
    34  C          0.70488200       0.65392000       0.34386000
    35  H          0.35700000       0.36320000       0.71770000
    36  H          0.64300000       0.63680000       0.28230000
    37  C          0.16171600       0.45927000       0.61474000
    38  C          0.83828400       0.54073000       0.38526000
    39  H          0.13120000       0.55010000       0.64810000
    40  H          0.86880000       0.44990000       0.35190000
    41  C          0.12271700       0.30307000       0.48074000
    42  C          0.87728300       0.69693000       0.51926000
    43  H          0.06510000       0.28280000       0.41910000
    44  H          0.93490000       0.71720000       0.58090000
    45  N          0.34261400       0.21377000       0.61484000
    46  N          0.65738600       0.78623000       0.38516000
