data_ENICOU
_symmetry_space_group_name_H-M    'P1'
_symmetry_Int_Tables_number       1
loop_
_symmetry_equiv_pos_site_id
_symmetry_equiv_pos_as_xyz
1 x,y,z
_cell_length_a                   7.23154
_cell_length_b                   8.49945
_cell_length_c                   14.93838
_cell_angle_alpha                82.7414
_cell_angle_beta                 80.0613
_cell_angle_gamma                70.3134
loop_
_atom_site_label
_atom_site_type_symbol
_atom_site_fract_x
_atom_site_fract_y
_atom_site_fract_z
     1  S          0.25575140       0.46882110       0.03222600
     2  S          0.74424860       0.53117890       0.96777400
     3  S          0.82266140       0.96372890       0.33279600
     4  S          0.17733860       0.03627110       0.66720400
     5  C          0.79035000       0.72276000       0.24083000
     6  C          0.20965000       0.27724000       0.75917000
     7  N          0.60085000       0.05434000       0.30302000
     8  N          0.39915000       0.94566000       0.69698000
     9  N          0.30794000       0.60684000       0.16512000
    10  N          0.69206000       0.39316000       0.83488000
    11  C          0.95235000       0.62275000       0.37633000
    12  C          0.04765000       0.37725000       0.62367000
    13  H         -0.00550000       0.64570000       0.42860000
    14  H          0.00550000       0.35430000       0.57140000
    15  N          0.42324000       0.31313000       0.18542000
    16  N          0.57676000       0.68687000       0.81458000
    17  H          0.44560000       0.32060000       0.24050000
    18  H          0.55440000       0.67940000       0.75950000
    19  C          0.09106000       0.79034000       0.94817000
    20  C          0.90894000       0.20966000       0.05183000
    21  H          0.95050000       0.80010000       0.95480000
    22  H          0.04950000       0.19990000       0.04520000
    23  H          0.16060000       0.73600000       0.89220000
    24  H          0.83940000       0.26400000       0.10780000
    25  H          0.10360000       0.90230000       0.94480000
    26  H          0.89640000       0.09770000       0.05520000
    27  C          0.33525000       0.46114000       0.13552000
    28  C          0.66475000       0.53886000       0.86448000
    29  C          0.17995000       0.68794000       0.02823000
    30  C          0.82005000       0.31206000       0.97177000
    31  C          0.47735000       0.15684000       0.15503000
    32  C          0.52265000       0.84316000       0.84497000
    33  C          0.58515000       0.01904000       0.21462000
    34  C          0.41485000       0.98096000       0.78538000
    35  C          0.92195000       0.42705000       0.28223000
    36  C          0.07805000       0.57295000       0.71777000
    37  H          0.94510000       0.31450000       0.27000000
    38  H          0.05490000       0.68550000       0.73000000
    39  C          0.22245000       0.73235000       0.10282000
    40  C          0.77755000       0.26765000       0.89718000
    41  H          0.19450000       0.84680000       0.11260000
    42  H          0.80550000       0.15320000       0.88740000
    43  C          0.82585000       0.55766000       0.22353000
    44  C          0.17415000       0.44234000       0.77647000
    45  H          0.78430000       0.53400000       0.17120000
    46  H          0.21570000       0.46600000       0.82880000
    47  C          0.85815000       0.75256000       0.31712000
    48  C          0.14185000       0.24744000       0.68288000
    49  C          0.98396000       0.45975000       0.35833000
    50  C          0.01604000       0.54025000       0.64167000
    51  H          0.04850000       0.36970000       0.39830000
    52  H          0.95150000       0.63030000       0.60170000
    53  C          0.67485000       0.86226000       0.18452000
    54  C          0.32515000       0.13774000       0.81548000
    55  C          0.43015000       0.04975000       0.37413000
    56  C          0.56985000       0.95025000       0.62587000
    57  H          0.30560000       0.11040000       0.34990000
    58  H          0.69440000       0.88960000       0.65010000
    59  H          0.43590000       0.10250000       0.42770000
    60  H          0.56410000       0.89750000       0.57230000
    61  H          0.43670000       0.93300000       0.39140000
    62  H          0.56330000       0.06700000       0.60860000
    63  O          0.43934000       0.13543000       0.08018170
    64  O          0.56066000       0.86457000       0.91981830
    65  O          0.66474000       0.82197000       0.10193160
    66  O          0.33526000       0.17803000       0.89806840
    67  H          0.60570000       0.90890000       0.07130000
    68  H          0.39430000       0.09110000       0.92870000
    69  O          0.95844000       0.02013000       0.26673180
    70  O          0.04156000       0.97987000       0.73326820
    71  O          0.81394000       0.98227000       0.42670170
    72  O          0.18606000       0.01773000       0.57329830
    73  C          0.42925000       0.54495000       0.37943000
    74  C          0.57075000       0.45505000       0.62057000
    75  C          0.46195000       0.57914000       0.46952000
    76  C          0.53805000       0.42086000       0.53048000
    77  H          0.33540000       0.65190000       0.50060000
    78  H          0.66460000       0.34810000       0.49940000
    79  H          0.55870000       0.64100000       0.45990000
    80  H          0.44130000       0.35900000       0.54010000
    81  O          0.36844000       0.68103000       0.32469170
    82  O          0.63156000       0.31897000       0.67530830
    83  H          0.35880000       0.65380000       0.27400000
    84  H          0.64120000       0.34620000       0.72600000
    85  O          0.45564000       0.40333000       0.35801180
    86  O          0.54436000       0.59667000       0.64198820
