data_ENIKOE
_symmetry_space_group_name_H-M    'P1'
_symmetry_Int_Tables_number       1
loop_
_symmetry_equiv_pos_site_id
_symmetry_equiv_pos_as_xyz
1 x,y,z
_cell_length_a                   4.99862
_cell_length_b                   8.68808
_cell_length_c                   12.23015
_cell_angle_alpha                83.9297
_cell_angle_beta                 76.9153
_cell_angle_gamma                81.4237
loop_
_atom_site_label
_atom_site_type_symbol
_atom_site_fract_x
_atom_site_fract_y
_atom_site_fract_z
     1  C          0.26186000       0.31743000       0.59932000
     2  C          0.73814000       0.68257000       0.40068000
     3  C          0.50775000       0.26093000       0.53052000
     4  C          0.49225000       0.73907000       0.46948000
     5  C          0.66165000       0.12813000       0.56572000
     6  C          0.33835000       0.87187000       0.43428000
     7  C          0.56035000       0.05883000       0.67072000
     8  C          0.43965000       0.94117000       0.32928000
     9  C          0.31316000       0.12433000       0.73392000
    10  C          0.68684000       0.87567000       0.26608000
    11  C          0.92405000       0.06603000       0.49152000
    12  C          0.07595000       0.93397000       0.50848000
    13  N          0.16444000       0.25213000       0.69982180
    14  N          0.83556000       0.74787000       0.30017820
    15  H          0.15720000       0.40520000       0.57320000
    16  H          0.84280000       0.59480000       0.42680000
    17  H          0.56910000       0.31280000       0.46030000
    18  H          0.43090000       0.68720000       0.53970000
    19  H          0.65550000       0.97020000       0.70110000
    20  H          0.34450000       0.02980000       0.29890000
    21  H          0.24440000       0.07690000       0.80530000
    22  H          0.75560000       0.92310000       0.19470000
    23  H         -0.01210000       0.12780000       0.42630000
    24  H          0.01210000       0.87220000       0.57370000
    25  C          0.57616000       0.49614000       0.78792000
    26  C          0.42384000       0.50386000       0.21208000
    27  C          0.30785000       0.55703000       0.86372000
    28  C          0.69215000       0.44297000       0.13628000
    29  C          0.16656000       0.70324000       0.81493000
    30  C          0.83344000       0.29676000       0.18507000
    31  C          0.91874000       0.76913000       0.89243000
    32  C          0.08126000       0.23087000       0.10757000
    33  C          0.71832000       0.81544000       0.95443000
    34  C          0.28168000       0.18456000       0.04557000
    35  O          0.67334000       0.56033000       0.69938170
    36  O          0.32666000       0.43967000       0.30061830
    37  O          0.69604000       0.36792000       0.83163170
    38  O          0.30396000       0.63208000       0.16836830
    39  H          0.84450000       0.34140000       0.78620000
    40  H          0.15550000       0.65860000       0.21380000
    41  H          0.34250000       0.57650000       0.93470000
    42  H          0.65750000       0.42350000       0.06530000
    43  H          0.18740000       0.47620000       0.87740000
    44  H          0.81260000       0.52380000       0.12260000
    45  H          0.29570000       0.77930000       0.79670000
    46  H          0.70430000       0.22070000       0.20330000
    47  H          0.11630000       0.68190000       0.74650000
    48  H          0.88370000       0.31810000       0.25350000
    49  H          0.55650000       0.84860000       0.00300000
    50  H          0.44350000       0.15140000      -0.00300000
