data_ENUDEY
_symmetry_space_group_name_H-M    'P1'
_symmetry_Int_Tables_number       1
loop_
_symmetry_equiv_pos_site_id
_symmetry_equiv_pos_as_xyz
1 x,y,z
_cell_length_a                   9.536519
_cell_length_b                   10.443513
_cell_length_c                   13.176816
_cell_angle_alpha                85.3479
_cell_angle_beta                 84.6221
_cell_angle_gamma                68.22617
loop_
_atom_site_label
_atom_site_type_symbol
_atom_site_fract_x
_atom_site_fract_y
_atom_site_fract_z
     1  S          0.65461400       0.71924400       0.15049300
     2  S          0.34538600       0.28075600       0.84950700
     3  O          0.62567140       0.60729110       0.10048900
     4  O          0.37432860       0.39270890       0.89951100
     5  C          0.47230180       0.84457160       0.18198130
     6  C          0.52769820       0.15542840       0.81801870
     7  H          0.41610000       0.87500000       0.12040000
     8  H          0.58390000       0.12500000       0.87960000
     9  H          0.48350000       0.92390000       0.21020000
    10  H          0.51650000       0.07610000       0.78980000
    11  H          0.41700000       0.80370000       0.23260000
    12  H          0.58300000       0.19630000       0.76740000
    13  C          0.70792000       0.81973170       0.04895120
    14  C          0.29208000       0.18026830       0.95104880
    15  H          0.80820000       0.76550000       0.01840000
    16  H          0.19180000       0.23450000       0.98160000
    17  H          0.71090000       0.90350000       0.07580000
    18  H          0.28910000       0.09650000       0.92420000
    19  H          0.63390000       0.84540000      -0.00310000
    20  H          0.36610000       0.15460000       0.00310000
    21  Cl         0.16085600       0.09848600       0.68486700
    22  Cl         0.83914400       0.90151400       0.31513300
    23  O          0.61516110       0.17124100       0.07966800
    24  O          0.38483890       0.82875900       0.92033200
    25  N          0.53868140       0.37319130       0.16229900
    26  N          0.46131860       0.62680870       0.83770100
    27  N          0.35302130       0.43878110       0.30236900
    28  N          0.64697870       0.56121890       0.69763100
    29  N          0.22580130       0.41613120       0.34514900
    30  N          0.77419870       0.58386880       0.65485100
    31  C          0.62274150       0.28382140       0.08855100
    32  C          0.37725850       0.71617860       0.91144900
    33  N          0.71604140       0.33725130       0.02861900
    34  N          0.28395860       0.66274870       0.97138100
    35  C          0.39599150       0.53796140       0.34649100
    36  C          0.60400850       0.46203860       0.65350900
    37  C          0.28232160       0.65526140       0.38382100
    38  C          0.71767840       0.34473860       0.61617900
    39  H          0.17910000       0.67150000       0.37550000
    40  H          0.82090000       0.32850000       0.62450000
    41  C          0.87249160       0.36119150       0.88105890
    42  C          0.12750840       0.63880850       0.11894110
    43  H          0.83700000       0.45740000       0.89120000
    44  H          0.16300000       0.54260000       0.10880000
    45  C          0.21677150       0.31700130       0.29214100
    46  C          0.78322850       0.68299870       0.70785900
    47  C          0.41841150       0.35629130       0.22226100
    48  C          0.58158850       0.64370870       0.77773900
    49  C          0.58300170       0.60948150       0.40771110
    50  C          0.41699830       0.39051850       0.59228890
    51  H          0.68630000       0.59390000       0.41500000
    52  H          0.31370000       0.40610000       0.58500000
    53  C          0.33535160       0.27466140       0.21506110
    54  C          0.66464840       0.72533860       0.78493890
    55  H          0.35380000       0.20470000       0.16820000
    56  H          0.64620000       0.79530000       0.83180000
    57  C          0.08758160       0.26563140       0.31597110
    58  C          0.91241840       0.73436860       0.68402890
    59  C          0.54664160       0.51403150       0.35883100
    60  C          0.45335840       0.48596850       0.64116900
    61  H          0.62420000       0.43320000       0.33410000
    62  H          0.37580000       0.56680000       0.66590000
    63  C          0.81886150       0.27526140       0.94773900
    64  C          0.18113850       0.72473860       0.05226100
    65  C          0.47097170       0.72770140       0.44626110
    66  C          0.52902830       0.27229860       0.55373890
    67  C          0.87286160       0.13461150       0.93192890
    68  C          0.12713840       0.86538850       0.06807110
    69  H          0.83780000       0.07510000       0.97660000
    70  H          0.16220000       0.92490000       0.02340000
    71  C          0.32093170       0.74830140       0.43333100
    72  C          0.67906830       0.25169860       0.56666900
    73  H          0.24300000       0.82820000       0.45910000
    74  H          0.75700000       0.17180000       0.54090000
    75  C          0.02839170       0.16725170       0.78616890
    76  C          0.97160830       0.83274830       0.21383110
    77  C          0.97782170       0.08061160       0.85105880
    78  C          0.02217830       0.91938840       0.14894120
    79  H          0.01450000       0.98450000       0.84050000
    80  H          0.98550000       0.01550000       0.15950000
    81  C          0.51112000       0.83017160       0.49936140
    82  C          0.48888000       0.16982840       0.50063860
    83  H          0.48990000       0.91530000       0.45630000
    84  H          0.51010000       0.08470000       0.54370000
    85  H          0.61890000       0.79140000       0.51190000
    86  H          0.38110000       0.20860000       0.48810000
    87  H          0.45060000       0.85070000       0.56450000
    88  H          0.54940000       0.14930000       0.43550000
    89  C          0.97689170       0.30688160       0.80034890
    90  C          0.02310830       0.69311840       0.19965110
    91  H          0.01260000       0.36550000       0.75520000
    92  H          0.98740000       0.63450000       0.24480000
    93  C          0.15112000       0.10936170       0.33757170
    94  C          0.84888000       0.89063830       0.66242830
    95  H          0.21330000       0.06450000       0.27770000
    96  H          0.78670000       0.93550000       0.72230000
    97  H          0.06730000       0.07620000       0.35260000
    98  H          0.93270000       0.92380000       0.64740000
    99  H          0.21330000       0.08710000       0.39630000
   100  H          0.78670000       0.91290000       0.60370000
   101  C          0.98888000       0.33532000       0.40857150
   102  C          0.01112000       0.66468000       0.59142850
   103  H          0.04990000       0.31310000       0.46800000
   104  H          0.95010000       0.68690000       0.53200000
   105  H          0.90510000       0.30210000       0.42250000
   106  H          0.09490000       0.69790000       0.57750000
   107  H          0.94840000       0.43560000       0.39470000
   108  H          0.05160000       0.56440000       0.60530000
   109  C          0.98998000       0.29972000       0.22424140
   110  C          0.01002000       0.70028000       0.77575860
   111  H          0.05210000       0.25450000       0.16440000
   112  H          0.94790000       0.74550000       0.83560000
   113  H          0.94920000       0.39980000       0.21000000
   114  H          0.05080000       0.60020000       0.79000000
   115  H          0.90640000       0.26650000       0.23960000
   116  H          0.09360000       0.73350000       0.76040000
   117  H          0.70541900       0.41661900       0.04061300
   118  H          0.29458100       0.58338100       0.95938700
   119  H          0.54801900       0.44801800       0.16151300
   120  H          0.45198100       0.55198200       0.83848700
