data_ENUPEJ
_symmetry_space_group_name_H-M    'P1'
_symmetry_Int_Tables_number       1
loop_
_symmetry_equiv_pos_site_id
_symmetry_equiv_pos_as_xyz
1 x,y,z
_cell_length_a                   10.69877
_cell_length_b                   10.930112
_cell_length_c                   15.32999
_cell_angle_alpha                80.2027
_cell_angle_beta                 74.1025
_cell_angle_gamma                85.5327
loop_
_atom_site_label
_atom_site_type_symbol
_atom_site_fract_x
_atom_site_fract_y
_atom_site_fract_z
     1  O          0.09092000       0.73373000       0.33932180
     2  O          0.45312000       0.65063000       0.00568190
     3  O          0.87267000       0.74613000       0.35622000
     4  N          0.44773000       0.52254000       0.14192000
     5  O          0.74963000       0.78623000       0.94883810
     6  O          0.66613000       0.57163000       0.24139190
     7  N          0.01373000       0.83693000       0.22602000
     8  N          0.35273000       0.37733000       0.29912000
     9  N          0.67473000       0.69213000       0.10092000
    10  C          0.25374000       0.24274000       0.22633000
    11  C          0.96726000       0.94944000       0.10173000
    12  H          0.92260000      -0.00990000       0.06040000
    13  C          0.13474000       0.87114000       0.16523000
    14  C          0.38204000       0.41974000       0.13683000
    15  C          0.87134000       0.61394000       0.12443000
    16  C          0.91376000       0.88634000       0.18413000
    17  H          0.82520000       0.87610000       0.21000000
    18  C          0.10654000       0.94414000       0.08723000
    19  C          0.89584000       0.67604000       0.03483000
    20  C          0.33314000       0.96724000       0.01963000
    21  H          0.40120000       0.00160000       0.97190000
    22  C          0.98276000       0.76724000       0.31423000
    23  C          0.47304000       0.63104000       0.08133000
    24  C          0.76914000       0.72644000       0.01783000
    25  C          0.96964000       0.56675000       0.16213000
    26  H          0.95250000       0.52510000       0.22210000
    27  C          0.53574000       0.72424000       0.12093000
    28  H          0.50120000       0.70750000       0.18780000
    29  C          0.72984000       0.61934000       0.16623000
    30  C          0.50594000       0.86264000       0.09093000
    31  H          0.55360000       0.88300000       0.02610000
    32  C          0.56344000       0.94144000       0.14503000
    33  H          0.65270000       0.90980000       0.14110000
    34  C          0.29024000       0.28804000       0.06193000
    35  H          0.27780000       0.26900000       0.00810000
    36  C          0.30044000       0.31064000       0.37863000
    37  H          0.31400000       0.33280000       0.43120000
    38  C          0.36494000       0.38934000       0.05733000
    39  H          0.40300000       0.43600000       0.00080000
    40  C          0.22754000       0.63734000       0.42853000
    41  H          0.27570000       0.60000000       0.37640000
    42  H          0.23580000       0.58530000       0.48390000
    43  H          0.26100000       0.71750000       0.42500000
    44  C          0.26154000       0.84344000       0.16943000
    45  H          0.27890000       0.79450000       0.22090000
    46  C          0.36184000       0.88964000       0.09603000
    47  C          0.01974000       0.69075000       0.98047000
    48  H          0.03620000       0.73100000       0.92020000
    49  C          0.32924000       0.34404000       0.22293000
    50  C          0.11885000       0.64395000       0.01824000
    51  H          0.20410000       0.65330000       0.98250000
    52  C          0.20784000      -0.00696000       0.01413000
    53  H          0.19080000       0.04210000       0.96260000
    54  C          0.22414000       0.20634000       0.38863000
    55  H          0.19040000       0.16080000       0.44640000
    56  C          0.23484000       0.21624000       0.14353000
    57  H          0.18450000       0.14990000       0.14480000
    58  C          0.09675000       0.58305000       0.10784000
    59  H          0.16630000       0.55300000       0.13160000
    60  C          0.20064000       0.17334000       0.31413000
    61  H          0.14990000       0.10540000       0.32010000
    62  C          0.08484000       0.65185000       0.42873000
    63  C          0.02944000       0.52974000       0.42813000
    64  H          0.93960000       0.54230000       0.42820000
    65  H          0.03660000       0.47260000       0.48160000
    66  H          0.07680000       0.49640000       0.37400000
    67  C          0.49334000       0.93145000       0.24673000
    68  H          0.53630000       0.98050000       0.27540000
    69  H          0.49460000       0.84620000       0.27520000
    70  H          0.40490000       0.96130000       0.25360000
    71  C          0.57255000       0.07655000       0.09833000
    72  H          0.48730000       0.10950000       0.09650000
    73  H          0.62760000       0.08100000       0.03690000
    74  H          0.60840000       0.12410000       0.13230000
    75  C          0.00764000       0.72055000       0.50573000
    76  H          0.03620000       0.80430000       0.49420000
    77  H          0.02110000       0.67920000       0.56310000
    78  H          0.91680000       0.72150000       0.50850000
    79  H          0.47040000       0.52040000       0.20030000
    80  O          0.12832000       0.28783000       0.59671180
    81  O          0.73732000       0.11383000       0.47381190
    82  N          0.44143000       0.45623000       0.54092000
    83  N          0.78113000       0.00313000       0.59802000
    84  N          0.07913000       0.17103000       0.74172000
    85  O          0.29383000       0.23473000       0.84874180
    86  N          0.30733000       0.33554000       0.70342000
    87  O          0.96487000       0.07593000       0.88516190
    88  C          0.90476000       0.25504000       0.68813000
    89  C          0.37314000       0.44234000       0.70423000
    90  C          0.44314000       0.50344000       0.61763000
    91  O          0.94883000       0.06873000       0.47342000
    92  C          0.65134000      -0.00784000       0.65083000
    93  C          0.53894000       0.89986000       0.80273000
    94  H          0.53820000       0.85340000       0.85950000
    95  C          0.96426000       0.13784000       0.81213000
    96  C          0.85547000       0.19314000       0.77553000
    97  C          0.65434000       0.92386000       0.73673000
    98  C          0.20843000       0.13164000       0.75303000
    99  H          0.19410000       0.06890000       0.80830000
   100  C          0.42324000       0.94646000       0.78293000
   101  H          0.34520000       0.93080000       0.82770000
   102  C          0.22154000       0.96816000       0.64793000
   103  H          0.14700000       0.01130000       0.62920000
   104  C          0.53664000       0.04004000       0.63123000
   105  H          0.53730000       0.08700000       0.57440000
   106  C          0.04904000       0.24324000       0.66663000
   107  C          0.27443000       0.23944000       0.77363000
   108  C          0.86114000       0.93866000       0.65103000
   109  H          0.95130000       0.93160000       0.63140000
   110  C          0.29393000       0.06644000       0.67393000
   111  H          0.31820000       0.13060000       0.61980000
   112  C          0.78864000       0.88916000       0.73393000
   113  H          0.81890000       0.84160000       0.78070000
   114  C          0.42044000       0.01624000       0.69813000
   115  C          0.37104000       0.48724000       0.78363000
   116  H          0.32300000       0.44800000       0.84030000
   117  C          0.69186000       0.30544000       0.67443000
   118  H          0.63530000       0.34220000       0.64030000
   119  C          0.58964000       0.61315000       0.45073000
   120  H          0.63990000       0.64620000       0.39290000
   121  C          0.16734000       0.86426000       0.72513000
   122  H          0.23770000       0.81630000       0.74320000
   123  H          0.11710000       0.81170000       0.70450000
   124  H          0.11290000       0.89900000       0.77660000
   125  C          0.51214000       0.51394000       0.46153000
   126  H          0.50890000       0.48480000       0.40860000
   127  C          0.30794000       0.91505000       0.56323000
   128  H          0.34140000       0.98220000       0.51510000
   129  H          0.25700000       0.86380000       0.54200000
   130  H          0.37880000       0.86630000       0.57980000
   131  C          0.76084000       0.18605000       0.38053000
   132  C          0.44154000       0.59214000       0.77813000
   133  H          0.43890000       0.62270000       0.83160000
   134  C          0.59074000       0.66224000       0.52773000
   135  H          0.64050000       0.73040000       0.52240000
   136  C          0.51594000       0.60804000       0.61403000
   137  C          0.62494000       0.21674000       0.37023000
   138  H          0.58240000       0.14130000       0.37330000
   139  H          0.62940000       0.26780000       0.31200000
   140  H          0.57650000       0.26050000       0.41870000
   141  C          0.72236000       0.18794000       0.81473000
   142  H          0.68900000       0.14670000       0.87400000
   143  C          0.51394000       0.65034000       0.69623000
   144  H          0.56220000       0.71830000       0.69450000
   145  C          0.83364000       0.06474000       0.50863000
   146  C          0.64126000       0.24555000       0.76313000
   147  H          0.55170000       0.24430000       0.78800000
   148  C          0.82566000       0.31194000       0.63493000
   149  H          0.85960000       0.35260000       0.57560000
   150  C          0.83215000       0.30205000       0.37504000
   151  H          0.78340000       0.34920000       0.42130000
   152  H          0.84200000       0.35120000       0.31550000
   153  H          0.91630000       0.27940000       0.38480000
   154  C          0.83374000       0.10295000       0.31093000
   155  H          0.91950000       0.08310000       0.31850000
   156  H          0.83980000       0.14560000       0.24980000
   157  H          0.78770000       0.02770000       0.32070000
   158  H          0.29640000       0.32440000       0.65930000
   159  C          0.86269000       0.53688000       0.80077000
   160  H          0.85450000       0.58770000       0.74720000
   161  C          0.98735000       0.41216000       0.89256000
   162  H          0.06800000       0.37870000       0.89790000
   163  C          0.75585000       0.42947000       0.95726000
   164  H          0.68080000       0.41140000       0.00450000
   165  C          0.88058000       0.38427000       0.96265000
   166  C          0.75597000       0.50507000       0.87247000
   167  H          0.67560000       0.53630000       0.86470000
   168  C          0.97841000       0.49229000       0.81017000
   169  H          0.05320000       0.51300000       0.76330000
   170  C          0.88958000       0.30736000       0.04545000
   171  H          0.92230000       0.22620000       0.03270000
   172  H          0.80490000       0.30090000       0.08800000
   173  H          0.94730000       0.34310000       0.07150000
