data_EPETOK
_symmetry_space_group_name_H-M    'P1'
_symmetry_Int_Tables_number       1
loop_
_symmetry_equiv_pos_site_id
_symmetry_equiv_pos_as_xyz
1 x,y,z
_cell_length_a                   8.50325
_cell_length_b                   12.94837
_cell_length_c                   18.857511
_cell_angle_alpha                90.0
_cell_angle_beta                 98.7973
_cell_angle_gamma                90.0
loop_
_atom_site_label
_atom_site_type_symbol
_atom_site_fract_x
_atom_site_fract_y
_atom_site_fract_z
     1  C          0.02594180       0.08491110       0.60599800
     2  C          0.97405820       0.58491110       0.89400200
     3  C          0.97405820       0.91508890       0.39400200
     4  C          0.02594180       0.41508890       0.10599800
     5  C          0.93586190       0.98777890       0.58730800
     6  C          0.06413810       0.48777890       0.91269200
     7  C          0.06413810       0.01222110       0.41269200
     8  C          0.93586190       0.51222110       0.08730800
     9  C          0.96673000       0.88825870       0.61076100
    10  C          0.03327000       0.38825870       0.88923900
    11  C          0.03327000       0.11174130       0.38923900
    12  C          0.96673000       0.61174130       0.11076100
    13  H          0.05690000       0.87220000       0.64340000
    14  H          0.94310000       0.37220000       0.85660000
    15  H          0.94310000       0.12780000       0.35660000
    16  H          0.05690000       0.62780000       0.14340000
    17  C          0.85773000       0.81261870       0.58381120
    18  C          0.14227000       0.31261870       0.91618880
    19  C          0.14227000       0.18738130       0.41618880
    20  C          0.85773000       0.68738130       0.08381120
    21  H          0.87560000       0.74450000       0.59850000
    22  H          0.12440000       0.24450000       0.90150000
    23  H          0.12440000       0.25550000       0.40150000
    24  H          0.87560000       0.75550000       0.09850000
    25  C          0.72513000       0.83614860       0.53628120
    26  C          0.27487000       0.33614860       0.96371880
    27  C          0.27487000       0.16385140       0.46371880
    28  C          0.72513000       0.66385140       0.03628120
    29  H          0.65370000       0.78390000       0.51990000
    30  H          0.34630000       0.28390000       0.98010000
    31  H          0.34630000       0.21610000       0.48010000
    32  H          0.65370000       0.71610000       0.01990000
    33  C          0.69452000       0.93564870       0.51199100
    34  C          0.30548000       0.43564870       0.98800900
    35  C          0.30548000       0.06435130       0.48800900
    36  C          0.69452000       0.56435130       0.01199100
    37  H          0.60500000       0.95130000       0.47890000
    38  H          0.39500000       0.45130000       0.02110000
    39  H          0.39500000       0.04870000       0.52110000
    40  H          0.60500000       0.54870000       0.97890000
    41  C          0.80179180       0.01091110       0.53870800
    42  C          0.19820820       0.51091110       0.96129200
    43  C          0.19820820       0.98908890       0.46129200
    44  C          0.80179180       0.48908890       0.03870800
    45  C          0.80032180       0.12323110       0.52392800
    46  C          0.19967820       0.62323110       0.97607200
    47  C          0.19967820       0.87676890       0.47607200
    48  C          0.80032180       0.37676890       0.02392800
    49  N          0.93420140       0.16062900       0.56795700
    50  N          0.06579860       0.66062900       0.93204300
    51  N          0.06579860       0.83937100       0.43204300
    52  N          0.93420140       0.33937100       0.06795700
    53  O          0.14970150       0.09897100       0.64531700
    54  O          0.85029850       0.59897100       0.85468300
    55  O          0.85029850       0.90102900       0.35468300
    56  O          0.14970150       0.40102900       0.14531700
    57  O          0.98003140       0.26214800       0.56728700
    58  O          0.01996860       0.76214800       0.93271300
    59  O          0.01996860       0.73785200       0.43271300
    60  O          0.98003140       0.23785200       0.06728700
    61  H          0.94580000       0.29340000       0.59950000
    62  H          0.05420000       0.79340000       0.90050000
    63  H          0.05420000       0.70660000       0.40050000
    64  H          0.94580000       0.20660000       0.09950000
    65  O          0.70815150       0.17418900       0.48364700
    66  O          0.29184850       0.67418900       0.01635300
    67  O          0.29184850       0.82581100       0.51635300
    68  O          0.70815150       0.32581100       0.98364700
    69  C          0.40634160       0.66921100       0.37530700
    70  C          0.59365840       0.16921100       0.12469300
    71  C          0.59365840       0.33078900       0.62469300
    72  C          0.40634160       0.83078900       0.87530700
    73  C          0.53175160       0.59325100       0.40102700
    74  C          0.46824840       0.09325100       0.09897300
    75  C          0.46824840       0.40674900       0.59897300
    76  C          0.53175160       0.90674900       0.90102700
    77  C          0.69037170       0.60811120       0.42518800
    78  C          0.30962830       0.10811120       0.07481200
    79  C          0.30962830       0.39188880       0.57481200
    80  C          0.69037170       0.89188880       0.92518800
    81  H          0.73560000       0.67370000       0.42750000
    82  H          0.26440000       0.17370000       0.07250000
    83  H          0.26440000       0.32630000       0.57250000
    84  H          0.73560000       0.82630000       0.92750000
    85  C          0.78059190       0.52091130       0.44605900
    86  C          0.21940810       0.02091130       0.05394100
    87  C          0.21940810       0.47908870       0.55394100
    88  C          0.78059190       0.97908870       0.94605900
    89  H          0.88880000       0.52820000       0.46240000
    90  H          0.11120000       0.02820000       0.03760000
    91  H          0.11120000       0.47180000       0.53760000
    92  H          0.88880000       0.97180000       0.96240000
    93  C          0.71402000       0.42400130       0.44309900
    94  C          0.28598000       0.92400130       0.05690100
    95  C          0.28598000       0.57599870       0.55690100
    96  C          0.71402000       0.07599870       0.94309900
    97  H          0.77740000       0.36720000       0.45820000
    98  H          0.22260000       0.86720000       0.04180000
    99  H          0.22260000       0.63280000       0.54180000
   100  H          0.77740000       0.13280000       0.95820000
   101  C          0.55319190       0.40971110       0.41775900
   102  C          0.44680810       0.90971110       0.08224100
   103  C          0.44680810       0.59028890       0.58224100
   104  C          0.55319190       0.09028890       0.91775900
   105  H          0.50770000       0.34420000       0.41520000
   106  H          0.49230000       0.84420000       0.08480000
   107  H          0.49230000       0.65580000       0.58480000
   108  H          0.50770000       0.15580000       0.91520000
   109  C          0.46429170       0.49560100       0.39672700
   110  C          0.53570830      -0.00439900       0.10327300
   111  C          0.53570830       0.50439900       0.60327300
   112  C          0.46429170       0.00439900       0.89672700
   113  C          0.29311170       0.50737100       0.36619800
   114  C          0.70688830       0.00737100       0.13380200
   115  C          0.70688830       0.49262900       0.63380200
   116  C          0.29311170      -0.00737100       0.86619800
   117  N          0.26983130       0.61221900       0.35496600
   118  N          0.73016870       0.11221900       0.14503400
   119  N          0.73016870       0.38778100       0.64503400
   120  N          0.26983130       0.88778100       0.85496600
   121  O          0.41570130       0.76258700       0.37243600
   122  O          0.58429870       0.26258700       0.12756400
   123  O          0.58429870       0.23741300       0.62756400
   124  O          0.41570130       0.73741300       0.87243600
   125  O          0.12584110       0.65383800       0.32817600
   126  O          0.87415890       0.15383800       0.17182400
   127  O          0.87415890       0.34616200       0.67182400
   128  O          0.12584110       0.84616200       0.82817600
   129  O          0.18963130       0.44283800       0.35238700
   130  O          0.81036870       0.94283800       0.14761300
   131  O          0.81036870       0.55716200       0.64761300
   132  O          0.18963130       0.05716200       0.85238700
   133  C          0.83206180       0.07532110       0.74985800
   134  C          0.16793820       0.57532110       0.75014200
   135  C          0.16793820       0.92467890       0.25014200
   136  C          0.83206180       0.42467890       0.24985800
   137  C          0.74612170       0.91360110       0.75015700
   138  C          0.25387830       0.41360110       0.74984300
   139  C          0.25387830       0.08639890       0.24984300
   140  C          0.74612170       0.58639890       0.25015700
   141  C          0.72763180       0.80909110       0.75966800
   142  C          0.27236820       0.30909110       0.74033200
   143  C          0.27236820       0.19090890       0.24033200
   144  C          0.72763180       0.69090890       0.25966800
   145  H          0.80750000       0.76930000       0.78570000
   146  H          0.19250000       0.26930000       0.71430000
   147  H          0.19250000       0.23070000       0.21430000
   148  H          0.80750000       0.73070000       0.28570000
   149  C          0.58492000       0.76625130       0.72872900
   150  C          0.41508000       0.26625130       0.77127100
   151  C          0.41508000       0.23374870       0.27127100
   152  C          0.58492000       0.73374870       0.22872900
   153  H          0.56870000       0.69570000       0.73320000
   154  H          0.43130000       0.19570000       0.76680000
   155  H          0.43130000       0.30430000       0.26680000
   156  H          0.56870000       0.80430000       0.23320000
   157  C          0.46522000       0.82600140       0.69120100
   158  C          0.53478000       0.32600140       0.80879900
   159  C          0.53478000       0.17399860       0.30879900
   160  C          0.46522000       0.67399860       0.19120100
   161  H          0.37030000       0.79450000       0.67130000
   162  H          0.62970000       0.29450000       0.82870000
   163  H          0.62970000       0.20550000       0.32870000
   164  H          0.37030000       0.70550000       0.17130000
   165  C          0.48242000       0.93088140       0.68246900
   166  C          0.51758000       0.43088140       0.81753100
   167  C          0.51758000       0.06911860       0.31753100
   168  C          0.48242000       0.56911860       0.18246900
   169  H          0.40100000       0.97100000       0.65790000
   170  H          0.59900000       0.47100000       0.84210000
   171  H          0.59900000       0.02900000       0.34210000
   172  H          0.40100000       0.52900000       0.15790000
   173  C          0.62602180       0.97313120       0.71191800
   174  C          0.37397820       0.47313120       0.78808200
   175  C          0.37397820       0.02686880       0.28808200
   176  C          0.62602180       0.52686880       0.21191800
   177  N          0.87200140       0.98012900       0.77313600
   178  N          0.12799860       0.48012900       0.72686400
   179  N          0.12799860       0.01987100       0.22686400
   180  N          0.87200140       0.51987100       0.27313600
   181  H          0.96110000       0.96270000       0.79830000
   182  H          0.03890000       0.46270000       0.70170000
   183  H          0.03890000       0.03730000       0.20170000
   184  H          0.96110000       0.53730000       0.29830000
   185  N          0.68497150       0.07398900       0.71337700
   186  N          0.31502850       0.57398900       0.78662300
   187  N          0.31502850       0.92601100       0.28662300
   188  N          0.68497150       0.42601100       0.21337700
   189  H          0.63440000       0.12680000       0.69380000
   190  H          0.36560000       0.62680000       0.80620000
   191  H          0.36560000       0.87320000       0.30620000
   192  H          0.63440000       0.37320000       0.19380000
   193  N          0.92127170       0.15895100       0.76163800
   194  N          0.07872830       0.65895100       0.73836200
   195  N          0.07872830       0.84104900       0.23836200
   196  N          0.92127170       0.34104900       0.26163800
   197  H          0.88510000       0.21770000       0.74530000
   198  H          0.11490000       0.71770000       0.75470000
   199  H          0.11490000       0.78230000       0.25470000
   200  H          0.88510000       0.28230000       0.24530000
   201  H          0.01550000       0.15460000       0.78570000
   202  H         -0.01550000       0.65460000       0.71430000
   203  H         -0.01550000       0.84540000       0.21430000
   204  H          0.01550000       0.34540000       0.28570000
