data_EPEXED
_symmetry_space_group_name_H-M    'P1'
_symmetry_Int_Tables_number       1
loop_
_symmetry_equiv_pos_site_id
_symmetry_equiv_pos_as_xyz
1 x,y,z
_cell_length_a                   15.0397
_cell_length_b                   12.8096
_cell_length_c                   14.2186
_cell_angle_alpha                90.0
_cell_angle_beta                 90.0
_cell_angle_gamma                90.0
loop_
_atom_site_label
_atom_site_type_symbol
_atom_site_fract_x
_atom_site_fract_y
_atom_site_fract_z
     1  C          0.17424150       0.35828160       0.97006150
     2  C          0.82575850       0.64171840       0.47006150
     3  C          0.67424150       0.14171840       0.97006150
     4  C          0.32575850       0.85828160       0.47006150
     5  C          0.26952140       0.34946170      -0.00664850
     6  C          0.73047860       0.65053830       0.49335150
     7  C          0.76952140       0.15053830      -0.00664850
     8  C          0.23047860       0.84946170       0.49335150
     9  C          0.31519160       0.34532000       0.07783170
    10  C          0.68480840       0.65468000       0.57783170
    11  C          0.81519160       0.15468000       0.07783170
    12  C          0.18480840       0.84532000       0.57783170
    13  H          0.28450000       0.34510000       0.13620000
    14  H          0.71550000       0.65490000       0.63620000
    15  H          0.78450000       0.15490000       0.13620000
    16  H          0.21550000       0.84510000       0.63620000
    17  C          0.40740160       0.34162000       0.07414180
    18  C          0.59259840       0.65838000       0.57414180
    19  C          0.90740160       0.15838000       0.07414180
    20  C          0.09259840       0.84162000       0.57414180
    21  H          0.44060000       0.33980000       0.13100000
    22  H          0.55940000       0.66020000       0.63100000
    23  H          0.94060000       0.16020000       0.13100000
    24  H          0.05940000       0.83980000       0.63100000
    25  C          0.45199150       0.34045190       0.98797180
    26  C          0.54800850       0.65954810       0.48797180
    27  C          0.95199150       0.15954810       0.98797180
    28  C          0.04800850       0.84045190       0.48797180
    29  H          0.51510000       0.33670000       0.98710000
    30  H          0.48490000       0.66330000       0.48710000
    31  H          0.01510000       0.16330000       0.98710000
    32  H          0.98490000       0.83670000       0.48710000
    33  C          0.40565150       0.34474170       0.90363160
    34  C          0.59434850       0.65525830       0.40363160
    35  C          0.90565150       0.15525830       0.90363160
    36  C          0.09434850       0.84474170       0.40363160
    37  H          0.43590000       0.34350000       0.84500000
    38  H          0.56410000       0.65650000       0.34500000
    39  H          0.93590000       0.15650000       0.84500000
    40  H          0.06410000       0.84350000       0.34500000
    41  C          0.31401150       0.35091170       0.90775160
    42  C          0.68598850       0.64908830       0.40775160
    43  C          0.81401150       0.14908830       0.90775160
    44  C          0.18598850       0.85091170       0.40775160
    45  C          0.24630140       0.36758160       0.83363150
    46  C          0.75369860       0.63241840       0.33363150
    47  C          0.74630140       0.13241840       0.83363150
    48  C          0.25369860       0.86758160       0.33363150
    49  C          0.20692140       0.42313160       0.67703150
    50  C          0.79307860       0.57686840       0.17703150
    51  C          0.70692140       0.07686840       0.67703150
    52  C          0.29307860       0.92313160       0.17703150
    53  C          0.11241140       0.42403170       0.67503150
    54  C          0.88758860       0.57596830       0.17503150
    55  C          0.61241140       0.07596830       0.67503150
    56  C          0.38758860       0.92403170       0.17503150
    57  C          0.06982130       0.47182190       0.60080160
    58  C          0.93017870       0.52817810       0.10080160
    59  C          0.56982130       0.02817810       0.60080160
    60  C          0.43017870       0.97182190       0.10080160
    61  H          0.00670000       0.47490000       0.60230000
    62  H         -0.00670000       0.52510000       0.10230000
    63  H          0.50670000       0.02510000       0.60230000
    64  H          0.49330000       0.97490000       0.10230000
    65  C          0.11311150       0.51607170       0.52357150
    66  C          0.88688850       0.48392830       0.02357150
    67  C          0.61311150       0.98392830       0.52357150
    68  C          0.38688850       0.01607170       0.02357150
    69  C          0.20790140       0.50897170       0.51979150
    70  C          0.79209860       0.49102830       0.01979150
    71  C          0.70790140      -0.00897170       0.51979150
    72  C          0.29209860       0.00897170       0.01979150
    73  C          0.24922130       0.46373170       0.59782160
    74  C          0.75077870       0.53626830       0.09782160
    75  C          0.74922130       0.03626830       0.59782160
    76  C          0.25077870       0.96373170       0.09782160
    77  H          0.31230000       0.46030000       0.59680000
    78  H          0.68770000       0.53970000       0.09680000
    79  H          0.81230000       0.03970000       0.59680000
    80  H          0.18770000       0.96030000       0.09680000
    81  C          0.24957140       0.57484160       0.36566150
    82  C          0.75042860       0.42515840       0.86566150
    83  C          0.74957140       0.92515840       0.36566150
    84  C          0.25042860       0.07484160       0.86566150
    85  C          0.31805150       0.59317160       0.29258150
    86  C          0.68194850       0.40682840       0.79258150
    87  C          0.81805150       0.90682840       0.29258150
    88  C          0.18194850       0.09317160       0.79258150
    89  C          0.40792150       0.57160180       0.28908160
    90  C          0.59207850       0.42839820       0.78908160
    91  C          0.90792150       0.92839820       0.28908160
    92  C          0.09207850       0.07160180       0.78908160
    93  H          0.43770000       0.54040000       0.34090000
    94  H          0.56230000       0.45960000       0.84090000
    95  H          0.93770000       0.95960000       0.34090000
    96  H          0.06230000       0.04040000       0.84090000
    97  C          0.45360160       0.59730190       0.20668160
    98  C          0.54639840       0.40269810       0.70668160
    99  C          0.95360160       0.90269810       0.20668160
   100  C          0.04639840       0.09730190       0.70668160
   101  H          0.51560000       0.58380000       0.20260000
   102  H          0.48440000       0.41620000       0.70260000
   103  H          0.01560000       0.91620000       0.20260000
   104  H          0.98440000       0.08380000       0.70260000
   105  C          0.41011160       0.64211190       0.13087160
   106  C          0.58988840       0.35788810       0.63087160
   107  C          0.91011160       0.85788810       0.13087160
   108  C          0.08988840       0.14211190       0.63087160
   109  H          0.44310000       0.65980000       0.07610000
   110  H          0.55690000       0.34020000       0.57610000
   111  H          0.94310000       0.84020000       0.07610000
   112  H          0.05690000       0.15980000       0.57610000
   113  C          0.31982160       0.66164180       0.13324160
   114  C          0.68017840       0.33835820       0.63324160
   115  C          0.81982160       0.83835820       0.13324160
   116  C          0.18017840       0.16164180       0.63324160
   117  H          0.28990000       0.69190000       0.08110000
   118  H          0.71010000       0.30810000       0.58110000
   119  H          0.78990000       0.80810000       0.08110000
   120  H          0.21010000       0.19190000       0.58110000
   121  C          0.27450150       0.63532170       0.21498150
   122  C          0.72549850       0.36467830       0.71498150
   123  C          0.77450150       0.86467830       0.21498150
   124  C          0.22549850       0.13532170       0.71498150
   125  C          0.17930150       0.64078160       0.24139160
   126  C          0.82069850       0.35921840       0.74139160
   127  C          0.67930150       0.85921840       0.24139160
   128  C          0.32069850       0.14078160       0.74139160
   129  H          0.13071500       0.69911900       0.12651900
   130  H          0.86928500       0.30088100       0.62651900
   131  H          0.63071500       0.80088100       0.12651900
   132  H          0.36928500       0.19911900       0.62651900
   133  H          0.05320000       0.66520000       0.20220000
   134  H          0.94680000       0.33480000       0.70220000
   135  H          0.55320000       0.83480000       0.20220000
   136  H          0.44680000       0.16520000       0.70220000
   137  H          0.11821900       0.35020000       0.10320000
   138  H          0.88178100       0.64980000       0.60320000
   139  H          0.61821900       0.14980000       0.10320000
   140  H          0.38178100       0.85020000       0.60320000
   141  H          0.05191900       0.36920000       0.01120000
   142  H          0.94808100       0.63080000       0.51120000
   143  H          0.55191900       0.13080000       0.01120000
   144  H          0.44808100       0.86920000       0.51120000
   145  N          0.10780140       0.36001160       0.03115140
   146  N          0.89219860       0.63998840       0.53115140
   147  N          0.60780140       0.13998840       0.03115140
   148  N          0.39219860       0.86001160       0.53115140
   149  N          0.16252120       0.36772140       0.87716130
   150  N          0.83747880       0.63227860       0.37716130
   151  N          0.66252120       0.13227860       0.87716130
   152  N          0.33747880       0.86772140       0.37716130
   153  N          0.26763120       0.53755140       0.44741120
   154  N          0.73236880       0.46244860       0.94741120
   155  N          0.76763120       0.96244860       0.44741120
   156  N          0.23236880       0.03755140       0.94741120
   157  N          0.16647120       0.60389140       0.32792130
   158  N          0.83352880       0.39610860       0.82792130
   159  N          0.66647120       0.89610860       0.32792130
   160  N          0.33352880       0.10389140       0.82792130
   161  N          0.11501140       0.67401150       0.18650140
   162  N          0.88498860       0.32598850       0.68650140
   163  N          0.61501140       0.82598850       0.18650140
   164  N          0.38498860       0.17401150       0.68650140
   165  N          0.26597120       0.38854140       0.74762120
   166  N          0.73402880       0.61145860       0.24762120
   167  N          0.76597120       0.11145860       0.74762120
   168  N          0.23402880       0.88854140       0.24762120
   169  O          0.05941100       0.38021120       0.74091110
   170  O          0.94058900       0.61978880       0.24091110
   171  O          0.55941100       0.11978880       0.74091110
   172  O          0.44058900       0.88021120       0.24091110
   173  H          0.09100000       0.35310000       0.78310000
   174  H          0.90900000       0.64690000       0.28310000
   175  H          0.59100000       0.14690000       0.78310000
   176  H          0.40900000       0.85310000       0.28310000
   177  O          0.06054100       0.56205120       0.45898100
   178  O          0.93945900       0.43794880       0.95898100
   179  O          0.56054100       0.93794880       0.45898100
   180  O          0.43945900       0.06205120       0.95898100
   181  H          0.09210000       0.58640000       0.41540000
   182  H          0.90790000       0.41360000       0.91540000
   183  H          0.59210000       0.91360000       0.41540000
   184  H          0.40790000       0.08640000       0.91540000
   185  C          0.11096190       0.63322000       0.94619190
   186  C          0.88903810       0.36678000       0.44619190
   187  C          0.61096190       0.86678000       0.94619190
   188  C          0.38903810       0.13322000       0.44619190
   189  H          0.10330000       0.57500000       0.98670000
   190  H          0.89670000       0.42500000       0.48670000
   191  H          0.60330000       0.92500000       0.98670000
   192  H          0.39670000       0.07500000       0.48670000
   193  C          0.10582000       0.61602000       0.85065190
   194  C          0.89418000       0.38398000       0.35065190
   195  C          0.60582000       0.88398000       0.85065190
   196  C          0.39418000       0.11602000       0.35065190
   197  H          0.09410000       0.54820000       0.82660000
   198  H          0.90590000       0.45180000       0.32660000
   199  H          0.59410000       0.95180000       0.82660000
   200  H          0.40590000       0.04820000       0.32660000
   201  C          0.11790180       0.69892000       0.79127190
   202  C          0.88209820       0.30108000       0.29127190
   203  C          0.61790180       0.80108000       0.79127190
   204  C          0.38209820       0.19892000       0.29127190
   205  H          0.11600000       0.68970000       0.72500000
   206  H          0.88400000       0.31030000       0.22500000
   207  H          0.61600000       0.81030000       0.72500000
   208  H          0.38400000       0.18970000       0.22500000
   209  C          0.13285180       0.79522000       0.82933170
   210  C          0.86714820       0.20478000       0.32933170
   211  C          0.63285180       0.70478000       0.82933170
   212  C          0.36714820       0.29522000       0.32933170
   213  H          0.14090000       0.85430000       0.78990000
   214  H          0.85910000       0.14570000       0.28990000
   215  H          0.64090000       0.64570000       0.78990000
   216  H          0.35910000       0.35430000       0.28990000
   217  C          0.13607170       0.80542000       0.92608170
   218  C          0.86392830       0.19458000       0.42608170
   219  C          0.63607170       0.69458000       0.92608170
   220  C          0.36392830       0.30542000       0.42608170
   221  H          0.14600000       0.87280000       0.95170000
   222  H          0.85400000       0.12720000       0.45170000
   223  H          0.64600000       0.62720000       0.95170000
   224  H          0.35400000       0.37280000       0.45170000
   225  N          0.12594130       0.72560160       0.98547140
   226  N          0.87405870       0.27439840       0.48547140
   227  N          0.62594130       0.77439840       0.98547140
   228  N          0.37405870       0.22560160       0.48547140
   229  C          0.12007160       0.32722000       0.31071180
   230  C          0.87992840       0.67278000       0.81071180
   231  C          0.62007160       0.17278000       0.31071180
   232  C          0.37992840       0.82722000       0.81071180
   233  H          0.11370000       0.40030000       0.31990000
   234  H          0.88630000       0.59970000       0.81990000
   235  H          0.61370000       0.09970000       0.31990000
   236  H          0.38630000       0.90030000       0.81990000
   237  C          0.12049170       0.26352000       0.38890180
   238  C          0.87950830       0.73648000       0.88890180
   239  C          0.62049170       0.23648000       0.38890180
   240  C          0.37950830       0.76352000       0.88890180
   241  H          0.11520000       0.29210000       0.45030000
   242  H          0.88480000       0.70790000       0.95030000
   243  H          0.61520000       0.20790000       0.45030000
   244  H          0.38480000       0.79210000       0.95030000
   245  C          0.12876170       0.15771190       0.37598180
   246  C          0.87123830       0.84228810       0.87598180
   247  C          0.62876170       0.34228810       0.37598180
   248  C          0.37123830       0.65771190       0.87598180
   249  H          0.12850000       0.11170000       0.42840000
   250  H          0.87150000       0.88830000       0.92840000
   251  H          0.62850000       0.38830000       0.42840000
   252  H          0.37150000       0.61170000       0.92840000
   253  C          0.13740170       0.11922000       0.28631180
   254  C          0.86259830       0.88078000       0.78631180
   255  C          0.63740170       0.38078000       0.28631180
   256  C          0.36259830       0.61922000       0.78631180
   257  H          0.14350000       0.04640000       0.27550000
   258  H          0.85650000       0.95360000       0.77550000
   259  H          0.64350000       0.45360000       0.27550000
   260  H          0.35650000       0.54640000       0.77550000
   261  C          0.13699160       0.18870190       0.21242170
   262  C          0.86300840       0.81129810       0.71242170
   263  C          0.63699160       0.31129810       0.21242170
   264  C          0.36300840       0.68870190       0.71242170
   265  H          0.14340000       0.16170000       0.15060000
   266  H          0.85660000       0.83830000       0.65060000
   267  H          0.64340000       0.33830000       0.15060000
   268  H          0.35660000       0.66170000       0.65060000
   269  N          0.12812130       0.29157150       0.22248140
   270  N          0.87187870       0.70842850       0.72248140
   271  N          0.62812130       0.20842850       0.22248140
   272  N          0.37187870       0.79157150       0.72248140
