data_EPITOP
_symmetry_space_group_name_H-M    'P1'
_symmetry_Int_Tables_number       1
loop_
_symmetry_equiv_pos_site_id
_symmetry_equiv_pos_as_xyz
1 x,y,z
_cell_length_a                   9.82905
_cell_length_b                   15.04717
_cell_length_c                   21.17068
_cell_angle_alpha                90.0
_cell_angle_beta                 90.84401
_cell_angle_gamma                90.0
loop_
_atom_site_label
_atom_site_type_symbol
_atom_site_fract_x
_atom_site_fract_y
_atom_site_fract_z
     1  S          0.36766700       0.06687400       0.46618300
     2  S          0.63233300       0.56687400       0.03381700
     3  S          0.63233300       0.93312600       0.53381700
     4  S          0.36766700       0.43312600       0.96618300
     5  S          0.19174600       0.43472400       0.73166200
     6  S          0.80825400       0.93472400       0.76833800
     7  S          0.80825400       0.56527600       0.26833800
     8  S          0.19174600       0.06527600       0.23166200
     9  S          0.21959500       0.59339400       0.64598200
    10  S          0.78040500       0.09339400       0.85401800
    11  S          0.78040500       0.40660600       0.35401800
    12  S          0.21959500       0.90660600       0.14598200
    13  S          0.02963500       0.70920400       0.47820300
    14  S          0.97036500       0.20920400       0.02179700
    15  S          0.97036500       0.29079600       0.52179700
    16  S          0.02963500       0.79079600       0.97820300
    17  S          0.04461600       0.87665400       0.40120300
    18  S          0.95538400       0.37665400       0.09879700
    19  S          0.95538400       0.12334600       0.59879700
    20  S          0.04461600       0.62334600       0.90120300
    21  S          0.24831700       0.54502400       0.15877300
    22  S          0.75168300       0.04502400       0.34122700
    23  S          0.75168300       0.45497600       0.84122700
    24  S          0.24831700       0.95497600       0.65877300
    25  S          0.18998500       0.39564400       0.25025300
    26  S          0.81001500       0.89564400       0.24974700
    27  S          0.81001500       0.60435600       0.74974700
    28  S          0.18998500       0.10435600       0.75025300
    29  S          0.41897500       0.21495400       0.37316300
    30  S          0.58102500       0.71495400       0.12683700
    31  S          0.58102500       0.78504600       0.62683700
    32  S          0.41897500       0.28504600       0.87316300
    33  C          0.42712000       0.13328140       0.53282100
    34  C          0.57288000       0.63328140       0.96717900
    35  C          0.57288000       0.86671860       0.46717900
    36  C          0.42712000       0.36671860       0.03282100
    37  H          0.46420000       0.09300000       0.56580000
    38  H          0.53580000       0.59300000       0.93420000
    39  H          0.53580000       0.90700000       0.43420000
    40  H          0.46420000       0.40700000       0.06580000
    41  H          0.50230000       0.17190000       0.51870000
    42  H          0.49770000       0.67190000       0.98130000
    43  H          0.49770000       0.82810000       0.48130000
    44  H          0.50230000       0.32810000       0.01870000
    45  C          0.31822000       0.19066130       0.56153900
    46  C          0.68178000       0.69066130       0.93846100
    47  C          0.68178000       0.80933870       0.43846100
    48  C          0.31822000       0.30933870       0.06153900
    49  H          0.24250000       0.15230000       0.57550000
    50  H          0.75750000       0.65230000       0.92450000
    51  H          0.75750000       0.84770000       0.42450000
    52  H          0.24250000       0.34770000       0.07550000
    53  H          0.28190000       0.23180000       0.52890000
    54  H          0.71810000       0.73180000       0.97110000
    55  H          0.71810000       0.76820000       0.47110000
    56  H          0.28190000       0.26820000       0.02890000
    57  C          0.37096190       0.24442130       0.61752900
    58  C          0.62903810       0.74442130       0.88247100
    59  C          0.62903810       0.75557870       0.38247100
    60  C          0.37096190       0.25557870       0.11752900
    61  H          0.40070000       0.20330000       0.65150000
    62  H          0.59930000       0.70330000       0.84850000
    63  H          0.59930000       0.79670000       0.34850000
    64  H          0.40070000       0.29670000       0.15150000
    65  H          0.45110000       0.27940000       0.60440000
    66  H          0.54890000       0.77940000       0.89560000
    67  H          0.54890000       0.72060000       0.39560000
    68  H          0.45110000       0.22060000       0.10440000
    69  C          0.26442000       0.30681130       0.64293900
    70  C          0.73558000       0.80681130       0.85706100
    71  C          0.73558000       0.69318870       0.35706100
    72  C          0.26442000       0.19318870       0.14293900
    73  H          0.18780000       0.27150000       0.65950000
    74  H          0.81220000       0.77150000       0.84050000
    75  H          0.81220000       0.72850000       0.34050000
    76  H          0.18780000       0.22850000       0.15950000
    77  H          0.22860000       0.34430000       0.60800000
    78  H          0.77140000       0.84430000       0.89200000
    79  H          0.77140000       0.65570000       0.39200000
    80  H          0.22860000       0.15570000       0.10800000
    81  C          0.32032000       0.36604130       0.69483900
    82  C          0.67968000       0.86604130       0.80516100
    83  C          0.67968000       0.63395870       0.30516100
    84  C          0.32032000       0.13395870       0.19483900
    85  H          0.39120000       0.40510000       0.67700000
    86  H          0.60880000       0.90510000       0.82300000
    87  H          0.60880000       0.59490000       0.32300000
    88  H          0.39120000       0.09490000       0.17700000
    89  H          0.36430000       0.32840000       0.72760000
    90  H          0.63570000       0.82840000       0.77240000
    91  H          0.63570000       0.67160000       0.27240000
    92  H          0.36430000       0.17160000       0.22760000
    93  C          0.13422000       0.49792130       0.66743900
    94  C          0.86578000      -0.00207870       0.83256100
    95  C          0.86578000       0.50207870       0.33256100
    96  C          0.13422000       0.00207870       0.16743900
    97  C          0.02422000       0.48530140       0.62905100
    98  C          0.97578000       0.98530140       0.87094900
    99  C          0.97578000       0.51469860       0.37094900
   100  C          0.02422000       0.01469860       0.12905100
   101  H          0.96330000       0.43670000       0.63330000
   102  H          0.03670000       0.93670000       0.86670000
   103  H          0.03670000       0.56330000       0.36670000
   104  H          0.96330000       0.06330000       0.13330000
   105  C          0.00882000       0.55114140       0.58230110
   106  C         -0.00882000       0.05114140       0.91769890
   107  C         -0.00882000       0.44885860       0.41769890
   108  C          0.00882000       0.94885860       0.08230110
   109  H          0.93680000       0.55110000       0.55190000
   110  H          0.06320000       0.05110000       0.94810000
   111  H          0.06320000       0.44890000       0.44810000
   112  H          0.93680000       0.94890000       0.05190000
   113  C          0.10740180       0.61505130       0.58489900
   114  C          0.89259820       0.11505130       0.91510100
   115  C          0.89259820       0.38494870       0.41510100
   116  C          0.10740180       0.88494870       0.08489900
   117  C          0.12483190       0.69370130       0.54635900
   118  C          0.87516810       0.19370130       0.95364100
   119  C          0.87516810       0.30629870       0.45364100
   120  C          0.12483190       0.80629870       0.04635900
   121  C          0.20792000       0.76507140       0.55684900
   122  C          0.79208000       0.26507140       0.94315100
   123  C          0.79208000       0.23492860       0.44315100
   124  C          0.20792000       0.73492860       0.05684900
   125  H          0.27050000       0.76840000       0.59140000
   126  H          0.72950000       0.26840000       0.90860000
   127  H          0.72950000       0.23160000       0.40860000
   128  H          0.27050000       0.73160000       0.09140000
   129  C          0.19202000       0.83344150       0.51164100
   130  C          0.80798000       0.33344150       0.98835900
   131  C          0.80798000       0.16655850       0.48835900
   132  C          0.19202000       0.66655850       0.01164100
   133  H          0.24130000       0.88770000       0.51310000
   134  H          0.75870000       0.38770000       0.98690000
   135  H          0.75870000       0.11230000       0.48690000
   136  H          0.24130000       0.61230000       0.01310000
   137  C          0.09872000       0.81336140       0.46596900
   138  C          0.90128000       0.31336140       0.03403100
   139  C          0.90128000       0.18663860       0.53403100
   140  C          0.09872000       0.68663860       0.96596900
   141  C          0.20193000       0.88527160       0.35822110
   142  C          0.79807000       0.38527160       0.14177890
   143  C          0.79807000       0.11472840       0.64177890
   144  C          0.20193000       0.61472840       0.85822110
   145  H          0.18620000       0.92480000       0.32140000
   146  H          0.81380000       0.42480000       0.17860000
   147  H          0.81380000       0.07520000       0.67860000
   148  H          0.18620000       0.57520000       0.82140000
   149  H          0.27070000       0.91420000       0.38590000
   150  H          0.72930000       0.41420000       0.11410000
   151  H          0.72930000       0.08580000       0.61410000
   152  H          0.27070000       0.58580000       0.88590000
   153  C          0.26062000       0.79829160       0.33467110
   154  C          0.73938000       0.29829160       0.16532890
   155  C          0.73938000       0.20170840       0.66532890
   156  C          0.26062000       0.70170840       0.83467110
   157  H          0.34880000       0.81080000       0.31440000
   158  H          0.65120000       0.31080000       0.18560000
   159  H          0.65120000       0.18920000       0.68560000
   160  H          0.34880000       0.68920000       0.81440000
   161  H          0.27930000       0.75940000       0.37150000
   162  H          0.72070000       0.25940000       0.12850000
   163  H          0.72070000       0.24060000       0.62850000
   164  H          0.27930000       0.74060000       0.87150000
   165  C          0.17092000       0.74800140       0.28803100
   166  C          0.82908000       0.24800140       0.21196900
   167  C          0.82908000       0.25199860       0.71196900
   168  C          0.17092000       0.75199860       0.78803100
   169  H          0.13410000       0.79010000       0.25620000
   170  H          0.86590000       0.29010000       0.24380000
   171  H          0.86590000       0.20990000       0.74380000
   172  H          0.13410000       0.70990000       0.75620000
   173  H          0.09300000       0.72200000       0.31070000
   174  H          0.90700000       0.22200000       0.18930000
   175  H          0.90700000       0.27800000       0.68930000
   176  H          0.09300000       0.77800000       0.81070000
   177  C          0.24722000       0.67402150       0.25448100
   178  C          0.75278000       0.17402150       0.24551900
   179  C          0.75278000       0.32597850       0.74551900
   180  C          0.24722000       0.82597850       0.75448100
   181  H          0.32610000       0.69980000       0.23240000
   182  H          0.67390000       0.19980000       0.26760000
   183  H          0.67390000       0.30020000       0.76760000
   184  H          0.32610000       0.80020000       0.73240000
   185  H          0.28250000       0.63130000       0.28630000
   186  H          0.71750000       0.13130000       0.21370000
   187  H          0.71750000       0.36870000       0.71370000
   188  H          0.28250000       0.86870000       0.78630000
   189  C          0.15862000       0.62507150       0.20722110
   190  C          0.84138000       0.12507150       0.29277890
   191  C          0.84138000       0.37492850       0.79277890
   192  C          0.15862000       0.87492850       0.70722110
   193  H          0.11390000       0.66910000       0.17910000
   194  H          0.88610000       0.16910000       0.32090000
   195  H          0.88610000       0.33090000       0.82090000
   196  H          0.11390000       0.83090000       0.67910000
   197  H          0.08620000       0.59350000       0.23030000
   198  H          0.91380000       0.09350000       0.26970000
   199  H          0.91380000       0.40650000       0.76970000
   200  H          0.08620000       0.90650000       0.73030000
   201  C          0.30302000       0.46857140       0.21571100
   202  C          0.69698000       0.96857140       0.28428900
   203  C          0.69698000       0.53142860       0.78428900
   204  C          0.30302000       0.03142860       0.71571100
   205  C          0.43192000       0.45347150       0.23706110
   206  C          0.56808000       0.95347150       0.26293890
   207  C          0.56808000       0.54652850       0.76293890
   208  C          0.43192000       0.04652850       0.73706110
   209  H          0.50860000       0.48630000       0.22350000
   210  H          0.49140000       0.98630000       0.27650000
   211  H          0.49140000       0.51370000       0.77650000
   212  H          0.50860000       0.01370000       0.72350000
   213  C          0.43952000       0.38401150       0.28137110
   214  C          0.56048000       0.88401150       0.21862890
   215  C          0.56048000       0.61598850       0.71862890
   216  C          0.43952000       0.11598850       0.78137110
   217  H          0.52270000       0.36500000       0.30040000
   218  H          0.47730000       0.86500000       0.19960000
   219  H          0.47730000       0.63500000       0.69960000
   220  H          0.52270000       0.13500000       0.80040000
   221  C          0.31717190       0.34631130       0.29474900
   222  C          0.68282810       0.84631130       0.20525100
   223  C          0.68282810       0.65368870       0.70525100
   224  C          0.31717190       0.15368870       0.79474900
   225  C          0.28764190       0.27385130       0.33807900
   226  C          0.71235810       0.77385130       0.16192100
   227  C          0.71235810       0.72614870       0.66192100
   228  C          0.28764190       0.22614870       0.83807900
   229  C          0.16572000       0.24125150       0.35650100
   230  C          0.83428000       0.74125150       0.14349900
   231  C          0.83428000       0.75874850       0.64349900
   232  C          0.16572000       0.25874850       0.85650100
   233  H          0.08110000       0.26400000       0.34150000
   234  H          0.91890000       0.76400000       0.15850000
   235  H          0.91890000       0.73600000       0.65850000
   236  H          0.08110000       0.23600000       0.84150000
   237  C          0.17612000       0.17039150       0.40009100
   238  C          0.82388000       0.67039150       0.09990900
   239  C          0.82388000       0.82960850       0.59990900
   240  C          0.17612000       0.32960850       0.90009100
   241  H          0.09970000       0.14110000       0.41750000
   242  H          0.90030000       0.64110000       0.08250000
   243  H          0.90030000       0.85890000       0.58250000
   244  H          0.09970000       0.35890000       0.91750000
   245  C          0.30722000       0.14874130       0.41443900
   246  C          0.69278000       0.64874130       0.08556100
   247  C          0.69278000       0.85125870       0.58556100
   248  C          0.30722000       0.35125870       0.91443900
   249  C          0.51433000       0.40518170       0.49094140
   250  C          0.48567000       0.90518170       0.00905860
   251  C          0.48567000       0.59481830       0.50905860
   252  C          0.51433000       0.09481830       0.99094140
   253  H          0.56040000       0.40020000       0.44980000
   254  H          0.43960000       0.90020000       0.05020000
   255  H          0.43960000       0.59980000       0.55020000
   256  H          0.56040000       0.09980000       0.94980000
   257  H          0.49970000       0.34430000       0.50720000
   258  H          0.50030000       0.84430000       0.99280000
   259  H          0.50030000       0.65570000       0.49280000
   260  H          0.49970000       0.15570000       0.00720000
   261  C          0.38103000       0.44922000       0.48136180
   262  C          0.61897000       0.94922000       0.01863820
   263  C          0.61897000       0.55078000       0.51863820
   264  C          0.38103000       0.05078000       0.98136180
   265  H          0.32840000       0.44490000       0.52080000
   266  H          0.67160000       0.94490000       0.97920000
   267  H          0.67160000       0.55510000       0.47920000
   268  H          0.32840000       0.05510000       0.02080000
   269  H          0.32940000       0.41770000       0.44770000
   270  H          0.67060000       0.91770000       0.05230000
   271  H          0.67060000       0.58230000       0.55230000
   272  H          0.32940000       0.08230000       0.94770000
   273  C          0.39534000       0.54462000       0.46352160
   274  C          0.60466000       0.04462000       0.03647840
   275  C          0.60466000       0.45538000       0.53647840
   276  C          0.39534000       0.95538000       0.96352160
   277  H          0.30420000       0.57270000       0.46230000
   278  H          0.69580000       0.07270000       0.03770000
   279  H          0.69580000       0.42730000       0.53770000
   280  H          0.30420000       0.92730000       0.96230000
   281  H          0.43370000       0.54860000       0.42060000
   282  H          0.56630000       0.04860000       0.07940000
   283  H          0.56630000       0.45140000       0.57940000
   284  H          0.43370000       0.95140000       0.92060000
