data_EPIXAE
_symmetry_space_group_name_H-M    'P1'
_symmetry_Int_Tables_number       1
loop_
_symmetry_equiv_pos_site_id
_symmetry_equiv_pos_as_xyz
1 x,y,z
_cell_length_a                   9.333416
_cell_length_b                   11.8532
_cell_length_c                   18.4123
_cell_angle_alpha                96.07612
_cell_angle_beta                 96.66412
_cell_angle_gamma                99.78413
loop_
_atom_site_label
_atom_site_type_symbol
_atom_site_fract_x
_atom_site_fract_y
_atom_site_fract_z
     1  I          0.10341500       0.39824400       0.06104200
     2  I          0.89658500       0.60175600       0.93895800
     3  I          0.88137600       0.49397600       0.38506300
     4  I          0.11862400       0.50602400       0.61493700
     5  F          0.17555000       0.35263000       0.77282000
     6  F          0.82445000       0.64737000       0.22718000
     7  F          0.04954000       0.29143000       0.88862000
     8  F          0.95046000       0.70857000       0.11138000
     9  F          0.36805000       0.59993000       0.04162000
    10  F          0.63195000       0.40007000       0.95838000
    11  F          0.48895000       0.66433000       0.92612000
    12  F          0.51105000       0.33567000       0.07388000
    13  F          0.51685000       0.32963000       0.56662000
    14  F          0.48315000       0.67037000       0.43338000
    15  F          0.66776000       0.31504000       0.45383000
    16  F          0.33224000       0.68496000       0.54617000
    17  F          0.86996000       0.71124000       0.50853000
    18  F          0.13004000       0.28876000       0.49147000
    19  F          0.72305000       0.72443000       0.62482000
    20  F          0.27695000       0.27557000       0.37518000
    21  O          0.39505000       0.53273000       0.78302000
    22  O          0.60495000       0.46727000       0.21698000
    23  O          0.53725000       0.53543000       0.65612000
    24  O          0.46275000       0.46457000       0.34388000
    25  N          0.57827000       0.94155000       0.76194000
    26  N          0.42173000       0.05845000       0.23806000
    27  N          0.59478000       0.16595000       0.75445000
    28  N          0.40522000       0.83405000       0.24555000
    29  C          0.22697000       0.41265000       0.83963000
    30  C          0.77303000       0.58735000       0.16037000
    31  C          0.16147000       0.38165000       0.89884000
    32  C          0.83853000       0.61835000       0.10116000
    33  C          0.20697000       0.44176000       0.96954000
    34  C          0.79303000       0.55824000       0.03046000
    35  C          0.31877000       0.53596000       0.97573000
    36  C          0.68123000       0.46404000       0.02427000
    37  C          0.38407000       0.56835000       0.91584000
    38  C          0.61593000       0.43165000       0.08416000
    39  C          0.34057000       0.50635000       0.84583000
    40  C          0.65943000       0.49365000       0.15417000
    41  C          0.54668000       0.58277000       0.78644000
    42  C          0.45332000       0.41723000       0.21356000
    43  H          0.60030000       0.57690000       0.83580000
    44  H          0.39970000       0.42310000       0.16420000
    45  C          0.55928000       0.71456000       0.77434000
    46  C          0.44072000       0.28544000       0.22566000
    47  C          0.67418000       0.79245000       0.81214000
    48  C          0.32582000       0.20755000       0.18786000
    49  H          0.75040000       0.76760000       0.84150000
    50  H          0.24960000       0.23240000       0.15850000
    51  C          0.67809000       0.90726000       0.80715000
    52  C          0.32191000       0.09274000       0.19285000
    53  H          0.75340000       0.96300000       0.83640000
    54  H          0.24660000       0.03700000       0.16360000
    55  C          0.47009000       0.86716000       0.72185000
    56  C          0.52991000       0.13284000       0.27815000
    57  H          0.40200000       0.89390000       0.68830000
    58  H          0.59800000       0.10610000       0.31170000
    59  C          0.45389000       0.75036000       0.72775000
    60  C          0.54611000       0.24964000       0.27225000
    61  H          0.37310000       0.69670000       0.70060000
    62  H          0.62690000       0.30330000       0.29940000
    63  C          0.61318000       0.52386000       0.72804000
    64  C          0.38682000       0.47614000       0.27196000
    65  H          0.71910000       0.55980000       0.73160000
    66  H          0.28090000       0.44020000       0.26840000
    67  C          0.59988000       0.39535000       0.74034000
    68  C          0.40012000       0.60465000       0.25966000
    69  C          0.47238000       0.31505000       0.71954000
    70  C          0.52762000       0.68495000       0.28046000
    71  H          0.38440000       0.33850000       0.70070000
    72  H          0.61560000       0.66150000       0.29930000
    73  C          0.47379000       0.20146000       0.72605000
    74  C          0.52621000       0.79854000       0.27395000
    75  H          0.38650000       0.14600000       0.70990000
    76  H          0.61350000       0.85400000       0.29010000
    77  C          0.71441000       0.24326000       0.77705000
    78  C          0.28559000       0.75674000       0.22295000
    79  H          0.79940000       0.21790000       0.79800000
    80  H          0.20060000       0.78210000       0.20200000
    81  C          0.72269000       0.35806000       0.77185000
    82  C          0.27731000       0.64194000       0.22815000
    83  H          0.81100000       0.41140000       0.78940000
    84  H          0.18900000       0.58860000       0.21060000
    85  C          0.61947000       0.52725000       0.60053000
    86  C          0.38053000       0.47275000       0.39947000
    87  C          0.60878000       0.42376000       0.55414000
    88  C          0.39122000       0.57624000       0.44586000
    89  C          0.68488000       0.41836000       0.49524000
    90  C          0.31512000       0.58164000       0.50476000
    91  C          0.77527000       0.51397000       0.47864000
    92  C          0.22473000       0.48603000       0.52136000
    93  C          0.78558000       0.61487000       0.52254000
    94  C          0.21442000       0.38513000       0.47746000
    95  C          0.71028000       0.62206000       0.58244000
    96  C          0.28972000       0.37794000       0.41756000
    97  O          0.88769000       0.03407000       0.70135000
    98  O          0.11231000       0.96593000       0.29865000
    99  O          0.15401200       0.02201100       0.64506000
   100  O          0.84598800       0.97798900       0.35494000
   101  C         -0.00618400       0.97281700       0.73161100
   102  C          0.00618400       0.02718300       0.26838900
   103  H          0.94360000       0.90680000       0.75340000
   104  H          0.05640000       0.09320000       0.24660000
   105  H          0.06160000       0.02440000       0.77150000
   106  H          0.93840000       0.97560000       0.22850000
   107  C          0.07941500       0.92961300       0.67531100
   108  C          0.92058500       0.07038700       0.32468900
   109  H          0.15080000       0.88650000       0.69820000
   110  H          0.84920000       0.11350000       0.30180000
   111  H          0.01250000       0.87620000       0.63590000
   112  H         -0.01250000       0.12380000       0.36410000
   113  C          0.04030000       0.08441600       0.61351100
   114  C          0.95970000       0.91558400       0.38648900
   115  H          0.08860000       0.15040000       0.59090000
   116  H          0.91140000       0.84960000       0.40910000
   117  H          0.97210000       0.03180000       0.57420000
   118  H          0.02790000       0.96820000       0.42580000
   119  C          0.95920000       0.12621200       0.66911000
   120  C          0.04080000       0.87378800       0.33089000
   121  H          0.02600000       0.18110000       0.70760000
   122  H          0.97400000       0.81890000       0.29240000
   123  H          0.88500000       0.16780000       0.64660000
   124  H          0.11500000       0.83220000       0.35340000
   125  O          0.32219000       0.01146000       0.86084000
   126  O          0.67781000      -0.01146000       0.13916000
   127  O          0.25799000       0.00836000       0.00694000
   128  O          0.74201000      -0.00836000      -0.00694000
   129  C          0.33301200       0.91568000       0.89836000
   130  C          0.66698800       0.08432000       0.10164000
   131  H          0.43540000       0.92210000       0.92190000
   132  H          0.56460000       0.07790000       0.07810000
   133  H          0.30830000       0.84440000       0.86260000
   134  H          0.69170000       0.15560000       0.13740000
   135  C          0.23281300       0.90699000       0.95586000
   136  C          0.76718700       0.09301000       0.04414000
   137  H          0.12980000       0.89220000       0.93160000
   138  H          0.87020000       0.10780000       0.06840000
   139  H          0.24700000       0.84050000       0.98250000
   140  H          0.75300000       0.15950000       0.01750000
   141  C          0.25121600       0.10541000       0.96837000
   142  C          0.74878400       0.89459000       0.03163000
   143  H          0.27640000       0.17670000       0.00400000
   144  H          0.72360000       0.82330000      -0.00400000
   145  H          0.14950000       0.10030000       0.94400000
   146  H          0.85050000       0.89970000       0.05600000
   147  C          0.35151500       0.11279000       0.91257000
   148  C          0.64848500       0.88721000       0.08743000
   149  H          0.34110000       0.18020000       0.88620000
   150  H          0.65890000       0.81980000       0.11380000
   151  H          0.45400000       0.12430000       0.93700000
   152  H          0.54600000       0.87570000       0.06300000
   153  C          0.64081800       0.00571900       0.48829000
   154  C          0.35918200      -0.00571900       0.51171000
   155  H          0.71740000       0.96490000       0.47120000
   156  H          0.28260000       0.03510000       0.52880000
   157  H          0.68680000       0.08740000       0.50480000
   158  H          0.31320000       0.91260000       0.49520000
   159  C          0.58620000       0.95541400       0.54809000
   160  C          0.41380000       0.04458600       0.45191000
   161  H          0.55310000       0.87150000       0.53290000
   162  H          0.44690000       0.12850000       0.46710000
   163  H          0.66750000       0.96550000       0.58920000
   164  H          0.33250000       0.03450000       0.41080000
   165  O          0.47431400      -0.00039000       0.57275000
   166  O          0.52568600       0.00039000       0.42725000
   167  I          0.96848500       0.34870400       0.21849300
   168  I          0.03151500       0.65129600       0.78150700
