data_EPUGOO
_symmetry_space_group_name_H-M    'P1'
_symmetry_Int_Tables_number       1
loop_
_symmetry_equiv_pos_site_id
_symmetry_equiv_pos_as_xyz
1 x,y,z
_cell_length_a                   6.01975
_cell_length_b                   10.00318
_cell_length_c                   12.497412
_cell_angle_alpha                90.19101
_cell_angle_beta                 102.3072
_cell_angle_gamma                94.70701
loop_
_atom_site_label
_atom_site_type_symbol
_atom_site_fract_x
_atom_site_fract_y
_atom_site_fract_z
     1  Br         0.73322150       0.51659900       0.37289700
     2  Br         0.26677850       0.48340100       0.62710300
     3  O          0.54771000       0.75405000       0.52294000
     4  O          0.45229000       0.24595000       0.47706000
     5  O          0.29691000       0.72345000       0.36434000
     6  O          0.70309000       0.27655000       0.63566000
     7  C          0.43701300       0.68297000       0.44596000
     8  C          0.56298700       0.31703000       0.55404000
     9  C          0.47001300       0.53128000       0.44456000
    10  C          0.52998700       0.46872000       0.55544000
    11  H          0.33320000       0.48230000       0.40040000
    12  H          0.66680000       0.51770000       0.59960000
    13  Br         0.72945860       0.36544900       0.06711700
    14  Br         0.27054140       0.63455100       0.93288300
    15  O          0.89859000       0.71656000       0.13905000
    16  O          0.10141000       0.28344000       0.86095000
    17  O          0.16081000       0.57056000       0.19684000
    18  O          0.83919000       0.42944000       0.80316000
    19  H          0.19620000       0.62160000       0.25030000
    20  H          0.80380000       0.37840000       0.74970000
    21  C         -0.00821300       0.61428000       0.12726000
    22  C          0.00821300       0.38572000       0.87274000
    23  C          0.90638800       0.52627000       0.02406000
    24  C          0.09361200       0.47373000       0.97594000
    25  H          0.80670000       0.57570000       0.96840000
    26  H          0.19330000       0.42430000       0.03160000
    27  N          0.12921100       0.06646000       0.72005000
    28  N          0.87078900       0.93354000       0.27995000
    29  H          0.09590000       0.14660000       0.73070000
    30  H          0.90410000       0.85340000       0.26930000
    31  N          0.78078900       0.00226000       0.59815000
    32  N          0.21921100      -0.00226000       0.40185000
    33  H          0.73110000       0.07930000       0.60460000
    34  H          0.26890000       0.92070000       0.39540000
    35  H          0.69680000       0.94100000       0.55600000
    36  H          0.30320000       0.05900000       0.44400000
    37  S          0.10133000       0.82405190       0.64436160
    38  S          0.89867000       0.17594810       0.35563840
    39  C         -0.01371300       0.97757000       0.65276000
    40  C          0.01371300       0.02243000       0.34724000
    41  C          0.33711300       0.01868000       0.77176000
    42  C          0.66288700       0.98132000       0.22824000
    43  C          0.35181300       0.88488000       0.73936000
    44  C          0.64818700       0.11512000       0.26064000
    45  C          0.54991300       0.81839000       0.78097000
    46  C          0.45008700       0.18161000       0.21903000
    47  H          0.56430000       0.73140000       0.75810000
    48  H          0.43570000       0.26860000       0.24190000
    49  C          0.71871500       0.88719000       0.85597000
    50  C          0.28128500       0.11281000       0.14403000
    51  H          0.84910000       0.84470000       0.88550000
    52  H          0.15090000       0.15530000       0.11450000
    53  C          0.70431500       0.01851000       0.89037000
    54  C          0.29568500       0.98149000       0.10963000
    55  H          0.82380000       0.06120000       0.94180000
    56  H          0.17620000       0.93880000       0.05820000
    57  C          0.51341500       0.08629000       0.84837000
    58  C          0.48658500       0.91371000       0.15163000
    59  H          0.50350000       0.17390000       0.87050000
    60  H          0.49650000       0.82610000       0.12950000
