data_EQACIL
_symmetry_space_group_name_H-M    'P1'
_symmetry_Int_Tables_number       1
loop_
_symmetry_equiv_pos_site_id
_symmetry_equiv_pos_as_xyz
1 x,y,z
_cell_length_a                   11.203117
_cell_length_b                   11.295918
_cell_length_c                   12.333519
_cell_angle_alpha                75.8673
_cell_angle_beta                 84.5414
_cell_angle_gamma                68.4113
loop_
_atom_site_label
_atom_site_type_symbol
_atom_site_fract_x
_atom_site_fract_y
_atom_site_fract_z
     1  Cl         0.35584800       0.06537800       0.29106600
     2  Cl         0.64415200       0.93462200       0.70893400
     3  O          0.20897170       0.42876180       0.35563140
     4  O          0.79102830       0.57123820       0.64436860
     5  O          0.29217170       0.57110180       0.39264140
     6  O          0.70782830       0.42889820       0.60735860
     7  O          0.04397190       0.52912000       0.64592000
     8  O          0.95602810       0.47088000       0.35408000
     9  H          0.96530000       0.55560000       0.64880000
    10  H          0.03470000       0.44440000       0.35120000
    11  N          0.26842000       0.41242000       0.53008170
    12  N          0.73158000       0.58758000       0.46991830
    13  C          0.26242000       0.70902000       0.60738190
    14  C          0.73758000       0.29098000       0.39261810
    15  C          0.17463000       0.83762000       0.60632000
    16  C          0.82537000       0.16238000       0.39368000
    17  C          0.21602000       0.60422000       0.61807190
    18  C          0.78398000       0.39578000       0.38192810
    19  C          0.25192000       0.46902000       0.42102000
    20  C          0.74808000       0.53098000       0.57898000
    21  C          0.08482000       0.63203000       0.63202000
    22  C          0.91518000       0.36797000       0.36798000
    23  C          0.32453000       0.38613000       0.82062000
    24  C          0.67547000       0.61387000       0.17938000
    25  H          0.33100000       0.46670000       0.81730000
    26  H          0.66900000       0.53330000       0.18270000
    27  C          0.30452000       0.46722000       0.61382000
    28  C          0.69548000       0.53278000       0.38618000
    29  H          0.39170000       0.46750000       0.59690000
    30  H          0.60830000       0.53250000       0.40310000
    31  C          0.04293000       0.85803000       0.61832000
    32  C          0.95707000       0.14197000       0.38168000
    33  H          0.98440000       0.94190000       0.61680000
    34  H          0.01560000       0.05810000       0.38320000
    35  C          0.33453000       0.30243000       0.93322000
    36  C          0.66547000       0.69757000       0.06678000
    37  C          0.30762000       0.36602000       0.72262000
    38  C          0.69238000       0.63398000       0.27738000
    39  C          0.39573000       0.69163000       0.59742000
    40  C          0.60427000       0.30837000       0.40258000
    41  H          0.45630000       0.60850000       0.59950000
    42  H          0.54370000       0.39150000       0.40050000
    43  C          0.23523000       0.29663000       0.57822000
    44  C          0.76477000       0.70337000       0.42178000
    45  H          0.27330000       0.23040000       0.53510000
    46  H          0.72670000       0.76960000       0.46490000
    47  H          0.14290000       0.31880000       0.58070000
    48  H          0.85710000       0.68120000       0.41930000
    49  C          0.24923000       0.67073000       0.28832000
    50  C          0.75077000       0.32927000       0.71168000
    51  C         -0.00093000       0.75803000       0.63193000
    52  C          0.00093000       0.24197000       0.36807000
    53  H          0.91170000       0.77360000       0.64120000
    54  H          0.08830000       0.22640000       0.35880000
    55  C          0.22073000       0.94183000       0.59262000
    56  C          0.77927000       0.05817000       0.40738000
    57  H          0.16270000       0.02590000       0.59110000
    58  H          0.83730000       0.97410000       0.40890000
    59  C          0.30534000       0.77154000       0.29793000
    60  C          0.69466000       0.22846000       0.70207000
    61  H          0.27630000       0.79970000       0.36630000
    62  H          0.72370000       0.20030000       0.63370000
    63  H          0.27770000       0.84520000       0.23570000
    64  H          0.72230000       0.15480000       0.76430000
    65  H          0.39730000       0.73330000       0.29780000
    66  H          0.60270000       0.26670000       0.70220000
    67  C          0.34673000       0.15713000       0.15362000
    68  C          0.65327000       0.84287000       0.84638000
    69  C          0.29063000       0.24883000       0.69582000
    70  C          0.70937000       0.75117000       0.30418000
    71  H          0.23230000       0.21900000       0.74880000
    72  H          0.76770000       0.78100000       0.25120000
    73  H          0.37240000       0.17740000       0.69830000
    74  H          0.62760000       0.82260000       0.30170000
    75  C          0.34923000       0.92053000       0.58163000
    76  C          0.65077000       0.07947000       0.41837000
    77  H          0.37850000       0.98950000       0.57180000
    78  H          0.62150000       0.01050000       0.42820000
    79  C          0.43523000       0.79443000       0.58513000
    80  C          0.56477000       0.20557000       0.41487000
    81  H          0.52260000       0.77990000       0.57870000
    82  H          0.47740000       0.22010000       0.42130000
    83  C          0.33104000       0.28503000       0.13393000
    84  C          0.66896000       0.71497000       0.86607000
    85  H          0.32410000       0.32470000       0.19320000
    86  H          0.67590000       0.67530000       0.80680000
    87  C          0.32543000       0.35693000       0.02433000
    88  C          0.67457000       0.64307000       0.97567000
    89  H          0.31510000       0.44470000       0.01170000
    90  H          0.68490000       0.55530000       0.98830000
    91  C          0.35134000       0.17143000       0.95743000
    92  C          0.64866000       0.82857000       0.04257000
    93  H          0.35940000       0.13030000       0.89890000
    94  H          0.64060000       0.86970000       0.10110000
    95  C          0.30725000       0.61324000       0.18813000
    96  C          0.69275000       0.38676000       0.81187000
    97  H          0.39870000       0.57300000       0.19660000
    98  H          0.60130000       0.42700000       0.80340000
    99  H          0.28740000       0.68140000       0.12130000
   100  H          0.71260000       0.31860000       0.87870000
   101  H          0.27230000       0.54880000       0.18310000
   102  H          0.72770000       0.45120000       0.81690000
   103  C          0.35654000       0.09873000       0.06783000
   104  C          0.64346000       0.90127000       0.93217000
   105  H          0.36650000       0.01080000       0.08200000
   106  H          0.63350000       0.98920000       0.91800000
   107  C          0.10374000       0.72804000       0.28854000
   108  C          0.89626000       0.27196000       0.71146000
   109  H          0.07040000       0.66480000       0.27740000
   110  H          0.92960000       0.33520000       0.72260000
   111  H          0.07510000       0.80490000       0.22920000
   112  H          0.92490000       0.19510000       0.77080000
   113  H          0.07360000       0.75050000       0.35890000
   114  H          0.92640000       0.24950000       0.64110000
   115  O          0.84423000       0.22374000       0.08153000
   116  O          0.15577000       0.77626000       0.91847000
   117  C          0.97706000       0.19481100       0.07015000
   118  C          0.02294000       0.80518900       0.92985000
   119  H          0.01180000       0.14600000       0.01260000
   120  H          0.98820000       0.85400000       0.98740000
   121  H          0.02030000       0.14390000       0.14000000
   122  H          0.97970000       0.85610000       0.86000000
   123  C         -0.00734000       0.32169000       0.03898000
   124  C          0.00734000       0.67831000       0.96102000
   125  H          0.08220000       0.30890000       0.02970000
   126  H          0.91780000       0.69110000       0.97030000
   127  H          0.94870000       0.37080000       0.96990000
   128  H          0.05130000       0.62920000       0.03010000
   129  H          0.95710000       0.36870000       0.09660000
   130  H          0.04290000       0.63130000       0.90340000
   131  C          0.66756000       0.15921000       0.11506000
   132  C          0.33244000       0.84079000       0.88494000
   133  H          0.63410000       0.16660000       0.04390000
   134  H          0.36590000       0.83340000       0.95610000
   135  H          0.63330000       0.24260000       0.13480000
   136  H          0.36670000       0.75740000       0.86520000
   137  H          0.64310000       0.09630000       0.17080000
   138  H          0.35690000       0.90370000       0.82920000
   139  O          0.87391200       0.01931000       0.12149000
   140  O          0.12608800       0.98069000       0.87851000
   141  C          0.79838000       0.11961000       0.10895000
   142  C          0.20162000       0.88039000       0.89105000
