data_EQUDUR
_symmetry_space_group_name_H-M    'P1'
_symmetry_Int_Tables_number       1
loop_
_symmetry_equiv_pos_site_id
_symmetry_equiv_pos_as_xyz
1 x,y,z
_cell_length_a                   13.00244
_cell_length_b                   14.14734
_cell_length_c                   14.19064
_cell_angle_alpha                119.28801
_cell_angle_beta                 91.29601
_cell_angle_gamma                116.11201
loop_
_atom_site_label
_atom_site_type_symbol
_atom_site_fract_x
_atom_site_fract_y
_atom_site_fract_z
     1  N          0.40543170       0.21343180       0.64127160
     2  N          0.59456830       0.78656820       0.35872840
     3  C          0.27142000       0.11612000       0.58412000
     4  C          0.72858000       0.88388000       0.41588000
     5  H          0.22790000       0.14550000       0.63720000
     6  H          0.77210000       0.85450000       0.36280000
     7  H          0.24600000       0.11450000       0.51670000
     8  H          0.75400000       0.88550000       0.48330000
     9  C          0.23132000       0.98108000       0.54622000
    10  C          0.76868000       0.01892000       0.45378000
    11  H          0.26570000       0.98140000       0.60940000
    12  H          0.73430000       0.01860000       0.39060000
    13  H          0.26060000       0.94340000       0.48200000
    14  H          0.73940000       0.05660000       0.51800000
    15  C          0.09382000       0.90218000       0.50992000
    16  C          0.90618000       0.09782000       0.49008000
    17  H          0.06910000       0.81820000       0.49550000
    18  H          0.93090000       0.18180000       0.50450000
    19  H          0.06560000       0.94450000       0.57310000
    20  H          0.93440000       0.05550000       0.42690000
    21  C          0.03272000       0.88318000       0.40432000
    22  C          0.96728000       0.11682000       0.59568000
    23  H          0.05760000       0.96590000       0.41720000
    24  H          0.94240000       0.03410000       0.58280000
    25  H          0.94520000       0.83530000       0.38770000
    26  H          0.05480000       0.16470000       0.61230000
    27  H          0.05580000       0.83620000       0.34000000
    28  H          0.94420000       0.16380000       0.66000000
    29  C          0.45082000       0.22242000       0.74692000
    30  C          0.54918000       0.77758000       0.25308000
    31  H          0.44610000       0.14180000       0.72320000
    32  H          0.55390000       0.85820000       0.27680000
    33  H          0.53660000       0.29040000       0.78410000
    34  H          0.46340000       0.70960000       0.21590000
    35  C          0.38352000       0.24903000       0.83322000
    36  C          0.61648000       0.75097000       0.16678000
    37  H          0.30310000       0.17260000       0.80410000
    38  H          0.69690000       0.82740000       0.19590000
    39  H          0.37220000       0.31860000       0.84570000
    40  H          0.62780000       0.68140000       0.15430000
    41  C          0.45393000       0.28623000       0.94592000
    42  C          0.54607000       0.71377000       0.05408000
    43  H          0.53280000       0.36440000       0.97530000
    44  H          0.46720000       0.63560000       0.02470000
    45  H          0.40950000       0.30570000       0.00150000
    46  H          0.59050000       0.69430000      -0.00150000
    47  C          0.47473000       0.18573000       0.93753000
    48  C          0.52527000       0.81427000       0.06247000
    49  H          0.50840000       0.21040000       0.01390000
    50  H          0.49160000       0.78960000       0.98610000
    51  H          0.53110000       0.17680000       0.89400000
    52  H          0.46890000       0.82320000       0.10600000
    53  H          0.39820000       0.10470000       0.89930000
    54  H          0.60180000       0.89530000       0.10070000
    55  C          0.41952000       0.33772000       0.67002000
    56  C          0.58048000       0.66228000       0.32998000
    57  H          0.36500000       0.35370000       0.71500000
    58  H          0.63500000       0.64630000       0.28500000
    59  H          0.39240000       0.32790000       0.59840000
    60  H          0.60760000       0.67210000       0.40160000
    61  C          0.54562000       0.45372000       0.73552000
    62  C          0.45438000       0.54628000       0.26448000
    63  H          0.60200000       0.43920000       0.69270000
    64  H          0.39800000       0.56080000       0.30730000
    65  H          0.57270000       0.46840000       0.80970000
    66  H          0.42730000       0.53160000       0.19030000
    67  C          0.54622000       0.57012000       0.75412000
    68  C          0.45378000       0.42988000       0.24588000
    69  H          0.48320000       0.57800000       0.78950000
    70  H          0.51680000       0.42200000       0.21050000
    71  H          0.62470000       0.64660000       0.80790000
    72  H          0.37530000       0.35340000       0.19210000
    73  C          0.52492000       0.56613000       0.64612000
    74  C          0.47508000       0.43387000       0.35388000
    75  H          0.53640000       0.64750000       0.66530000
    76  H          0.46360000       0.35250000       0.33470000
    77  H          0.44260000       0.49820000       0.59680000
    78  H          0.55740000       0.50180000       0.40320000
    79  H          0.58200000       0.55010000       0.60640000
    80  H          0.41800000       0.44990000       0.39360000
    81  C          0.47872000       0.17642000       0.56392000
    82  C          0.52128000       0.82358000       0.43608000
    83  H          0.56450000       0.23210000       0.60960000
    84  H          0.43550000       0.76790000       0.39040000
    85  H          0.45560000       0.08870000       0.53710000
    86  H          0.54440000       0.91130000       0.46290000
    87  C          0.46642000       0.18313000       0.46112000
    88  C          0.53358000       0.81687000       0.53888000
    89  H          0.50620000       0.27270000       0.48540000
    90  H          0.49380000       0.72730000       0.51460000
    91  H          0.38040000       0.14060000       0.42130000
    92  H          0.61960000       0.85940000       0.57870000
    93  C          0.52472000       0.11803000       0.38062000
    94  C          0.47528000       0.88197000       0.61938000
    95  H          0.60620000       0.15070000       0.42440000
    96  H          0.39380000       0.84930000       0.57560000
    97  H          0.47670000       0.02580000       0.34740000
    98  H          0.52330000       0.97420000       0.65260000
    99  C          0.53383000       0.13973000       0.28543000
   100  C          0.46617000       0.86027000       0.71457000
   101  H          0.58360000       0.23070000       0.31770000
   102  H          0.41640000       0.76930000       0.68230000
   103  H          0.45330000       0.10680000       0.24140000
   104  H          0.54670000       0.89320000       0.75860000
   105  H          0.57050000       0.09570000       0.23560000
   106  H          0.42950000       0.90430000       0.76440000
   107  C          0.18702000       0.95518000       0.21222000
   108  C          0.81298000       0.04482000       0.78778000
   109  I          0.19767200       0.79949800       0.15684200
   110  I          0.80232800       0.20050200       0.84315800
   111  N          0.18713170       0.22041170       0.41574150
   112  N          0.81286830       0.77958830       0.58425850
   113  C          0.18112000       0.04892000       0.25266190
   114  C          0.81888000       0.95108000       0.74733810
   115  I          0.20025200       0.48809200       0.84504200
   116  I          0.79974800       0.51190800       0.15495800
   117  C          0.17492000       0.16212000       0.30393180
   118  C          0.82508000       0.83788000       0.69606820
   119  C          0.15682000       0.20572000       0.23953180
   120  C          0.84318000       0.79428000       0.76046820
   121  H          0.14800000       0.16140000       0.16070000
   122  H          0.85200000       0.83860000       0.83930000
   123  C          0.15192000       0.31542000       0.29320190
   124  C          0.84808000       0.68458000       0.70679810
   125  H          0.14150000       0.34850000       0.25190000
   126  H          0.85850000       0.65150000       0.74810000
   127  C          0.16252000       0.37642000       0.40836180
   128  C          0.83748000       0.62358000       0.59163820
   129  H          0.15810000       0.45090000       0.44680000
   130  H          0.84190000       0.54910000       0.55320000
   131  C          0.17955190       0.32532000       0.46556180
   132  C          0.82044810       0.67468000       0.53443820
   133  C          0.18882000       0.38342000       0.58455190
   134  C          0.81118000       0.61658000       0.41544810
   135  C          0.19392000       0.42802000       0.68237190
   136  C          0.80608000       0.57198000       0.31762810
   137  N          0.14393170       0.86034180       0.73597160
   138  N          0.85606830       0.13965820       0.26402840
   139  I          0.15799200       0.61101200       0.31741200
   140  I          0.84200800       0.38898800       0.68258800
   141  I          0.15186200       0.29186200      -0.00317800
   142  I          0.84813800       0.70813800       0.00317800
   143  C          0.14292000       0.65612000       0.47312000
   144  C          0.85708000       0.34388000       0.52688000
   145  C          0.14162000       0.69622000       0.56942000
   146  C          0.85838000       0.30378000       0.43058000
   147  C          0.13992000       0.74902000       0.68501190
   148  C          0.86008000       0.25098000       0.31498810
   149  C          0.13372000       0.68662000       0.73822000
   150  C          0.86628000       0.31338000       0.26178000
   151  H          0.13120000       0.60830000       0.69900000
   152  H          0.86880000       0.39170000       0.30100000
   153  C          0.13122000       0.74142000       0.84942000
   154  C          0.86878000       0.25858000       0.15058000
   155  H          0.12730000       0.70140000       0.88800000
   156  H          0.87270000       0.29860000       0.11200000
   157  C          0.13442000       0.85512000       0.90352000
   158  C          0.86558000       0.14488000       0.09648000
   159  H          0.13280000       0.89470000       0.97970000
   160  H          0.86720000       0.10530000       0.02030000
   161  C          0.13992000       0.91072000       0.84365190
   162  C          0.86008000       0.08928000       0.15634810
   163  C          0.13972000       0.02722000       0.89468190
   164  C          0.86028000       0.97278000       0.10531810
   165  C          0.13802000       0.12312000       0.93492000
   166  C          0.86198000       0.87688000       0.06508000
   167  Cl         0.78324500       0.43250500       0.90514400
   168  Cl         0.21675500       0.56749500       0.09485600
