data_ESAFIP
_symmetry_space_group_name_H-M    'P1'
_symmetry_Int_Tables_number       1
loop_
_symmetry_equiv_pos_site_id
_symmetry_equiv_pos_as_xyz
1 x,y,z
_cell_length_a                   5.57701
_cell_length_b                   19.0513
_cell_length_c                   15.5322
_cell_angle_alpha                90.0
_cell_angle_beta                 97.3635
_cell_angle_gamma                90.0
loop_
_atom_site_label
_atom_site_type_symbol
_atom_site_fract_x
_atom_site_fract_y
_atom_site_fract_z
     1  C          0.51572000       0.42625700       0.76229900
     2  C         -0.01572000       0.92625700       0.73770100
     3  C          0.48428000       0.57374300       0.23770100
     4  C          0.01572000       0.07374300       0.26229900
     5  H          0.37440000       0.40780000       0.72930000
     6  H          0.12560000       0.90780000       0.77070000
     7  H          0.62560000       0.59220000       0.27070000
     8  H          0.87440000       0.09220000       0.22930000
     9  C          0.56093000       0.41270800       0.85043100
    10  C          0.93907000       0.91270800       0.64956900
    11  C          0.43907000       0.58729200       0.14956900
    12  C          0.06093000       0.08729200       0.35043100
    13  H          0.44980000       0.38540000       0.87780000
    14  H          0.05020000       0.88540000       0.62220000
    15  H          0.55020000       0.61460000       0.12220000
    16  H          0.94980000       0.11460000       0.37780000
    17  C          0.76753000       0.43881800       0.89888900
    18  C          0.73247000       0.93881800       0.60111100
    19  C          0.23247000       0.56118200       0.10111100
    20  C          0.26753000       0.06118200       0.39888900
    21  H          0.79850000       0.42930000       0.95930000
    22  H          0.70150000       0.92930000       0.54070000
    23  H          0.20150000       0.57070000       0.04070000
    24  H          0.29850000       0.07070000       0.45930000
    25  C          0.92803000       0.47867800       0.85887900
    26  C          0.57197000       0.97867800       0.64112100
    27  C          0.07197000       0.52132200       0.14112100
    28  C          0.42803000       0.02132200       0.35887900
    29  H          0.07010000       0.49650000       0.89190000
    30  H          0.42990000      -0.00350000       0.60810000
    31  H          0.92990000       0.50350000       0.10810000
    32  H          0.57010000       0.00350000       0.39190000
    33  C          0.88272000       0.49289700       0.77048800
    34  C          0.61728000      -0.00710300       0.72951200
    35  C          0.11728000       0.50710300       0.22951200
    36  C          0.38272000       0.00710300       0.27048800
    37  H         -0.00660000       0.52060000       0.74340000
    38  H          0.50660000       0.02060000       0.75660000
    39  H          0.00660000       0.47940000       0.25660000
    40  H          0.49340000       0.97940000       0.24340000
    41  C          0.67582000       0.46671600       0.72169800
    42  C          0.82418000       0.96671600       0.77830200
    43  C          0.32418000       0.53328400       0.27830200
    44  C          0.17582000       0.03328400       0.22169800
    45  C          0.62092000       0.48190600       0.62491800
    46  C          0.87908000       0.98190600       0.87508200
    47  C          0.37908000       0.51809400       0.37508200
    48  C          0.12092000       0.01809400       0.12491800
    49  H          0.75510000       0.51000000       0.60500000
    50  H          0.74490000       0.01000000       0.89500000
    51  H          0.24490000       0.49000000       0.39500000
    52  H          0.25510000       0.99000000       0.10500000
    53  C          0.38622000       0.52288600       0.60977700
    54  C          0.11378000       0.02288600       0.89022300
    55  C          0.61378000       0.47711400       0.39022300
    56  C          0.88622000       0.97711400       0.10977700
    57  O          0.58390170       0.41949500       0.57513600
    58  O          0.91609830       0.91949500       0.92486400
    59  O          0.41609830       0.58050500       0.42486400
    60  O          0.08390170       0.08050500       0.07513600
    61  O          0.19337150       0.49782500       0.58062600
    62  O          0.30662850      -0.00217500       0.91937400
    63  O          0.80662850       0.50217500       0.41937400
    64  O          0.69337150       0.00217500       0.08062600
    65  O          0.41408170       0.58887500       0.63594600
    66  O          0.08591830       0.08887500       0.86405400
    67  O          0.58591830       0.41112500       0.36405400
    68  O          0.91408170       0.91112500       0.13594600
    69  H          0.27240000       0.60911200       0.63071400
    70  H          0.22760000       0.10911200       0.86928600
    71  H          0.72760000       0.39088800       0.36928600
    72  H          0.77240000       0.89088800       0.13071400
    73  H          0.72230000       0.40359000       0.56821100
    74  H          0.77770000       0.90359000       0.93178900
    75  H          0.27770000       0.59641000       0.43178900
    76  H          0.22230000       0.09641000       0.06821100
    77  C          0.29222000       0.21486700       0.60074900
    78  C          0.20778000       0.71486700       0.89925100
    79  C          0.70778000       0.78513300       0.39925100
    80  C          0.79222000       0.28513300       0.10074900
    81  H          0.44520000       0.23670000       0.61530000
    82  H          0.05480000       0.73670000       0.88470000
    83  H          0.55480000       0.76330000       0.38470000
    84  H          0.94520000       0.26330000       0.11530000
    85  C          0.24413000       0.15192800       0.63962900
    86  C          0.25587000       0.65192800       0.86037100
    87  C          0.75587000       0.84807200       0.36037100
    88  C          0.74413000       0.34807200       0.13962900
    89  H          0.36280000       0.13120000       0.68120000
    90  H          0.13720000       0.63120000       0.81880000
    91  H          0.63720000       0.86880000       0.31880000
    92  H          0.86280000       0.36880000       0.18120000
    93  C          0.02433000       0.11940800       0.61807900
    94  C          0.47567000       0.61940800       0.88192100
    95  C         -0.02433000       0.88059200       0.38192100
    96  C          0.52433000       0.38059200       0.11807900
    97  H         -0.00840000       0.07600000       0.64440000
    98  H          0.50840000       0.57600000       0.85560000
    99  H          0.00840000       0.92400000       0.35560000
   100  H          0.49160000       0.42400000       0.14440000
   101  C          0.85067000       0.15005800       0.55786900
   102  C          0.64933000       0.65005800       0.94213100
   103  C          0.14933000       0.84994200       0.44213100
   104  C          0.35067000       0.34994200       0.05786900
   105  H          0.69920000       0.12750000       0.54280000
   106  H          0.80080000       0.62750000       0.95720000
   107  H          0.30080000       0.87250000       0.45720000
   108  H          0.19920000       0.37250000       0.04280000
   109  C          0.89738000       0.21363700       0.51944900
   110  C          0.60262000       0.71363700       0.98055100
   111  C          0.10262000       0.78636300       0.48055100
   112  C          0.39738000       0.28636300       0.01944900
   113  H          0.77740000       0.23470000       0.47860000
   114  H          0.72260000       0.73470000       0.02140000
   115  H          0.22260000       0.76530000       0.52140000
   116  H          0.27740000       0.26530000       0.97860000
   117  C          0.12012000       0.24639600       0.54077800
   118  C          0.37988000       0.74639600       0.95922200
   119  C          0.87988000       0.75360400       0.45922200
   120  C          0.62012000       0.25360400       0.04077800
   121  C          0.17632000       0.31573600       0.50078800
   122  C          0.32368000       0.81573600      -0.00078800
   123  C          0.82368000       0.68426400       0.49921200
   124  C          0.67632000       0.18426400       0.00078800
   125  H          0.34790000       0.32840000       0.52180000
   126  H          0.15210000       0.82840000       0.97820000
   127  H          0.65210000       0.67160000       0.47820000
   128  H          0.84790000       0.17160000       0.02180000
   129  C          0.14822000       0.30953600       0.40242800
   130  C          0.35178000       0.80953600       0.09757200
   131  C          0.85178000       0.69046400       0.59757200
   132  C          0.64822000       0.19046400       0.90242800
   133  C          0.30673000       0.25635800       0.28408900
   134  C          0.19327000       0.75635800       0.21591100
   135  C          0.69327000       0.74364200       0.71591100
   136  C          0.80673000       0.24364200       0.78408900
   137  H          0.32350000       0.30160000       0.25400000
   138  H          0.17650000       0.80160000       0.24600000
   139  H          0.67650000       0.69840000       0.74600000
   140  H          0.82350000       0.19840000       0.75400000
   141  H          0.15040000       0.23480000       0.26050000
   142  H          0.34960000       0.73480000       0.23950000
   143  H          0.84960000       0.76520000       0.73950000
   144  H          0.65040000       0.26520000       0.76050000
   145  C          0.51093000       0.20842800       0.27084100
   146  C         -0.01093000       0.70842800       0.22915900
   147  C          0.48907000       0.79157200       0.72915900
   148  C          0.01093000       0.29157200       0.77084100
   149  H          0.66490000       0.23160000       0.29080000
   150  H          0.83510000       0.73160000       0.20920000
   151  H          0.33510000       0.76840000       0.70920000
   152  H          0.16490000       0.26840000       0.79080000
   153  H          0.50370000       0.19710000       0.20900000
   154  H         -0.00370000       0.69710000       0.29100000
   155  H          0.49630000       0.80290000       0.79100000
   156  H          0.00370000       0.30290000       0.70900000
   157  H          0.49810000       0.16510000       0.30400000
   158  H          0.00190000       0.66510000       0.19600000
   159  H          0.50190000       0.83490000       0.69600000
   160  H         -0.00190000       0.33490000       0.80400000
   161  O          0.02406170       0.36930500       0.52633700
   162  O          0.47593830       0.86930500       0.97366300
   163  O         -0.02406170       0.63069500       0.47366300
   164  O          0.52406170       0.13069500       0.02633700
   165  O         -0.00735160       0.33764500       0.35247600
   166  O          0.50735160       0.83764500       0.14752400
   167  O          0.00735160       0.66235500       0.64752400
   168  O          0.49264840       0.16235500       0.85247600
   169  O          0.31624150       0.26773500       0.37756600
   170  O          0.18375850       0.76773500       0.12243400
   171  O          0.68375850       0.73226500       0.62243400
   172  O          0.81624150       0.23226500       0.87756600
   173  H          0.10330000       0.40611100       0.53641300
   174  H          0.39670000       0.90611100       0.96358700
   175  H          0.89670000       0.59388900       0.46358700
   176  H          0.60330000       0.09388900       0.03641300
