data_ESAWOK
_symmetry_space_group_name_H-M    'P1'
_symmetry_Int_Tables_number       1
loop_
_symmetry_equiv_pos_site_id
_symmetry_equiv_pos_as_xyz
1 x,y,z
_cell_length_a                   12.11795
_cell_length_b                   26.233612
_cell_length_c                   6.89413
_cell_angle_alpha                90.0
_cell_angle_beta                 90.0
_cell_angle_gamma                90.0
loop_
_atom_site_label
_atom_site_type_symbol
_atom_site_fract_x
_atom_site_fract_y
_atom_site_fract_z
     1  C          0.22744000       0.76622000       0.33568000
     2  C          0.27256000       0.23378000       0.83568000
     3  C          0.72744000       0.73378000       0.66432000
     4  C          0.77256000       0.26622000       0.16432000
     5  C          0.33615000       0.77072000       0.27649000
     6  C          0.16385000       0.22928000       0.77649000
     7  C          0.83615000       0.72928000       0.72351000
     8  C          0.66385000       0.27072000       0.22351000
     9  C          0.39585000       0.81562000       0.30789000
    10  C          0.10415000       0.18438000       0.80789000
    11  C          0.89585000       0.68438000       0.69211000
    12  C          0.60415000       0.31562000       0.19211000
    13  H          0.47060000       0.81670000       0.27810000
    14  H          0.02940000       0.18330000       0.77810000
    15  H          0.97060000       0.68330000       0.72190000
    16  H          0.52940000       0.31670000       0.22190000
    17  C          0.34575000       0.85772000       0.38129000
    18  C          0.15425000       0.14228000       0.88129000
    19  C          0.84575000       0.64228000       0.61871000
    20  C          0.65425000       0.35772000       0.11871000
    21  H          0.38600000       0.88750000       0.39890000
    22  H          0.11400000       0.11250000       0.89890000
    23  H          0.88600000       0.61250000       0.60110000
    24  H          0.61400000       0.38750000       0.10110000
    25  C          0.17775000       0.90062000       0.49248000
    26  C          0.32225000       0.09938000      -0.00752000
    27  C          0.67775000       0.59938000       0.50752000
    28  C          0.82225000       0.40062000       0.00752000
    29  H          0.21610000       0.93110000       0.50610000
    30  H          0.28390000       0.06890000       0.00610000
    31  H          0.71610000       0.56890000       0.49390000
    32  H          0.78390000       0.43110000      -0.00610000
    33  C          0.06745000       0.89852000       0.53229000
    34  C          0.43255000       0.10148000       0.03229000
    35  C          0.56745000       0.60148000       0.46771000
    36  C          0.93255000       0.39852000       0.96771000
    37  C          0.01055000       0.85232000       0.52608000
    38  C          0.48945000       0.14768000       0.02608000
    39  C          0.51055000       0.64768000       0.47392000
    40  C         -0.01055000       0.35232000       0.97392000
    41  H          0.93650000       0.85120000       0.56170000
    42  H          0.56350000       0.14880000       0.06170000
    43  H          0.43650000       0.64880000       0.43830000
    44  H          0.06350000       0.35120000       0.93830000
    45  C          0.06175000       0.80972000       0.46909000
    46  C          0.43825000       0.19028000       0.96909000
    47  C          0.56175000       0.69028000       0.53091000
    48  C          0.93825000       0.30972000       0.03091000
    49  H          0.02250000       0.77920000       0.46680000
    50  H          0.47750000       0.22080000       0.96680000
    51  H          0.52250000       0.72080000       0.53320000
    52  H          0.97750000       0.27920000       0.03320000
    53  C          0.17364000       0.80982000       0.41218000
    54  C          0.32636000       0.19018000       0.91218000
    55  C          0.67364000       0.69018000       0.58782000
    56  C          0.82636000       0.30982000       0.08782000
    57  C          0.23255000       0.85652000       0.43108000
    58  C          0.26745000       0.14348000       0.93108000
    59  C          0.73255000       0.64348000       0.56892000
    60  C          0.76745000       0.35652000       0.06892000
    61  O          0.38433000       0.73028170       0.18617000
    62  O          0.11567000       0.26971830       0.68617000
    63  O          0.88433000       0.76971830       0.81383000
    64  O          0.61567000       0.23028170       0.31383000
    65  Br         0.98835400       0.95947300       0.59382110
    66  Br         0.51164600       0.04052700       0.09382110
    67  Br         0.48835400       0.54052700       0.40617890
    68  Br         0.01164600       0.45947300       0.90617890
    69  C          0.16904000       0.71642000       0.31939000
    70  C          0.33096000       0.28358000       0.81939000
    71  C          0.66904000       0.78358000       0.68061000
    72  C          0.83096000       0.21642000       0.18061000
    73  C          0.10245000       0.70612000       0.16279000
    74  C          0.39755000       0.29388000       0.66279000
    75  C          0.60245000       0.79388000       0.83721000
    76  C          0.89755000       0.20612000       0.33721000
    77  C          0.04936000       0.65833000       0.14641000
    78  C          0.45064000       0.34167000       0.64641000
    79  C          0.54936000       0.84167000       0.85359000
    80  C          0.95064000       0.15833000       0.35359000
    81  H          0.00270000       0.65200000       0.04190000
    82  H          0.49730000       0.34800000       0.54190000
    83  H          0.50270000       0.84800000       0.95810000
    84  H         -0.00270000       0.15200000       0.45810000
    85  C          0.06556000       0.62193000       0.28081000
    86  C          0.43444000       0.37807000       0.78081000
    87  C          0.56556000       0.87807000       0.71919000
    88  C          0.93444000       0.12193000       0.21919000
    89  H          0.03160000       0.59030000       0.26550000
    90  H          0.46840000       0.40970000       0.76550000
    91  H          0.53160000       0.90970000       0.73450000
    92  H          0.96840000       0.09030000       0.23450000
    93  C          0.15005000       0.59272000       0.58641100
    94  C          0.34995000       0.40728000       0.08641100
    95  C          0.65005000       0.90728000       0.41358900
    96  C          0.84995000       0.09272000       0.91358900
    97  H          0.11900000       0.56050000       0.57090000
    98  H          0.38100000       0.43950000       0.07090000
    99  H          0.61900000       0.93950000       0.42910000
   100  H          0.88100000       0.06050000       0.92910000
   101  C          0.21175000       0.60303000       0.74561000
   102  C          0.28825000       0.39697000       0.24561000
   103  C          0.71175000       0.89697000       0.25439000
   104  C          0.78825000       0.10303000       0.75439000
   105  C          0.25785000       0.65193000       0.77761000
   106  C          0.24215000       0.34807000       0.27761000
   107  C          0.75785000       0.84807000       0.22239000
   108  C          0.74215000       0.15193000       0.72239000
   109  H          0.29650000       0.65910000       0.89080000
   110  H          0.20350000       0.34090000       0.39080000
   111  H          0.79650000       0.84090000       0.10920000
   112  H          0.70350000       0.15910000       0.60920000
   113  C          0.24375000       0.68842000       0.63759000
   114  C          0.25625000       0.31158000       0.13759000
   115  C          0.74375000       0.81158000       0.36241000
   116  C          0.75625000       0.18842000       0.86241000
   117  H          0.27540000       0.72040000       0.65570000
   118  H          0.22460000       0.27960000       0.15570000
   119  H          0.77540000       0.77960000       0.34430000
   120  H          0.72460000       0.22040000       0.84430000
   121  C          0.18294000       0.67922000       0.46679000
   122  C          0.31706000       0.32078000       0.96679000
   123  C          0.68294000       0.82078000       0.53321000
   124  C          0.81706000       0.17922000       0.03321000
   125  C          0.13265000       0.63052000       0.44361000
   126  C          0.36735000       0.36948000       0.94361000
   127  C          0.63265000       0.86948000       0.55639000
   128  C          0.86735000       0.13052000       0.05639000
   129  O          0.08214000       0.73906190       0.01677000
   130  O          0.41786000       0.26093810       0.51677000
   131  O          0.58214000       0.76093810      -0.01677000
   132  O          0.91786000       0.23906190       0.48323000
   133  Br         0.23627700       0.55049300       0.93403150
   134  Br         0.26372300       0.44950700       0.43403150
   135  Br         0.73627700       0.94950700       0.06596850
   136  Br         0.76372300       0.05049300       0.56596850
   137  H          0.44740000       0.74191800       0.14370000
   138  H          0.05260000       0.25808200       0.64370000
   139  H          0.94740000       0.75808200       0.85630000
   140  H          0.55260000       0.24191800       0.35630000
   141  H          0.12650000       0.76030000      -0.01790000
   142  H          0.37350000       0.23970000       0.48210000
   143  H          0.62650000       0.73970000       0.01790000
   144  H          0.87350000       0.26030000       0.51790000
   145  C          0.18665000       0.86212000       0.95351000
   146  C          0.31335000       0.13788000       0.45351000
   147  C          0.68665000       0.63788000       0.04649000
   148  C          0.81335000       0.36212000       0.54649000
   149  C          0.07656000       0.87453000       0.02011000
   150  C          0.42344000       0.12547000       0.52011000
   151  C          0.57656000       0.62547000      -0.02011000
   152  C          0.92344000       0.37453000       0.47989000
   153  H          0.02400000       0.84880000       0.03070000
   154  H          0.47600000       0.15120000       0.53070000
   155  H          0.52400000       0.65120000       0.96930000
   156  H          0.97600000       0.34880000       0.46930000
   157  C          0.04975000       0.92143000       0.06541000
   158  C          0.45025000       0.07857000       0.56541000
   159  C          0.54975000       0.57857000       0.93459000
   160  C          0.95025000       0.42143000       0.43459000
   161  H          0.97810000       0.92810000       0.10710000
   162  H          0.52190000       0.07190000       0.60710000
   163  H          0.47810000       0.57190000       0.89290000
   164  H          0.02190000       0.42810000       0.39290000
   165  C          0.13006000       0.96453000       0.05249000
   166  C          0.36994000       0.03547000       0.55249000
   167  C          0.63006000       0.53547000       0.94751000
   168  C          0.86994000       0.46453000       0.44751000
   169  C          0.23846000       0.95132000      -0.01461000
   170  C          0.26154000       0.04868000       0.48539000
   171  C          0.73846000       0.54868000       0.01461000
   172  C          0.76154000       0.45132000       0.51461000
   173  H          0.29180000       0.97660000       0.97790000
   174  H          0.20820000       0.02340000       0.47790000
   175  H          0.79180000       0.52340000       0.02210000
   176  H          0.70820000       0.47660000       0.52210000
   177  C          0.26515000       0.90433000       0.93389000
   178  C          0.23485000       0.09567000       0.43389000
   179  C          0.76515000       0.59567000       0.06611000
   180  C          0.73485000       0.40433000       0.56611000
   181  H          0.33510000       0.89790000       0.88420000
   182  H          0.16490000       0.10210000       0.38420000
   183  H          0.83510000       0.60210000       0.11580000
   184  H          0.66490000       0.39790000       0.61580000
   185  O          0.21534000       0.81848170       0.91973000
   186  O          0.28466000       0.18151830       0.41973000
   187  O          0.71534000       0.68151830       0.08027000
   188  O          0.78466000       0.31848170       0.58027000
   189  O          0.10355000       0.00832000       0.09501100
   190  O          0.39645000       0.99168000       0.59501100
   191  O          0.60355000       0.49168000       0.90498900
   192  O          0.89645000       0.50832000       0.40498900
