data_ESUGIK
_symmetry_space_group_name_H-M    'P1'
_symmetry_Int_Tables_number       1
loop_
_symmetry_equiv_pos_site_id
_symmetry_equiv_pos_as_xyz
1 x,y,z
_cell_length_a                   9.77801
_cell_length_b                   13.77801
_cell_length_c                   14.26901
_cell_angle_alpha                63.0801
_cell_angle_beta                 87.3101
_cell_angle_gamma                77.6101
loop_
_atom_site_label
_atom_site_type_symbol
_atom_site_fract_x
_atom_site_fract_y
_atom_site_fract_z
     1  S          0.14669900       0.83145700       0.23703600
     2  S          0.85330100       0.16854300       0.76296400
     3  Cl         0.39240100       0.36984800       0.60288700
     4  Cl         0.60759900       0.63015200       0.39711300
     5  Cl         0.64216900       0.29356800       0.49628800
     6  Cl         0.35783100       0.70643200       0.50371200
     7  Cl         0.58545110       0.32713900       0.26926900
     8  Cl         0.41454890       0.67286100       0.73073100
     9  Cl         0.45679900       0.56622900       0.10345700
    10  Cl         0.54320100       0.43377100       0.89654300
    11  Cl         0.59255110       0.93064100       0.43832110
    12  Cl         0.40744890       0.06935900       0.56167890
    13  O          0.37123000       0.71762000       0.19538190
    14  O          0.62877000       0.28238000       0.80461810
    15  O          0.14182000       0.47420180       0.46761190
    16  O          0.85818000       0.52579820       0.53238810
    17  N          0.02833000       0.68542000       0.37612000
    18  N          0.97167000       0.31458000       0.62388000
    19  H          0.01540000       0.61330000       0.41930000
    20  H          0.98460000       0.38670000       0.58070000
    21  C          0.35753000       0.62263000       0.25462000
    22  C          0.64247000       0.37737000       0.74538000
    23  C          0.24973000       0.60042000       0.32952000
    24  C          0.75027000       0.39958000       0.67048000
    25  C          0.24763000       0.49593000       0.41912000
    26  C          0.75237000       0.50407000       0.58088000
    27  C          0.38443000       0.41683000       0.46922000
    28  C          0.61557000       0.58317000       0.53078000
    29  C          0.49353000       0.38553000       0.42103000
    30  C          0.50647000       0.61447000       0.57897000
    31  C          0.49843000       0.42453000       0.30803000
    32  C          0.50157000       0.57547000       0.69197000
    33  C          0.44023000       0.52853000       0.23533000
    34  C          0.55977000       0.47147000       0.76467000
    35  C          0.14343000       0.69313000       0.31942000
    36  C          0.85657000       0.30687000       0.68058000
    37  C          0.94153000       0.78623000       0.35952000
    38  C          0.05847000       0.21377000       0.64048000
    39  C         -0.01017000       0.87573000       0.28452000
    40  C          0.01017000       0.12427000       0.71548000
    41  C          0.91564000       0.98483000       0.25513000
    42  C          0.08436000       0.01517000       0.74487000
    43  H          0.94770000       0.04540000       0.20420000
    44  H          0.05230000       0.95460000       0.79580000
    45  C          0.79424000      -0.00037000       0.30353000
    46  C          0.20576000       0.00037000       0.69647000
    47  H          0.74310000       0.07140000       0.28580000
    48  H          0.25690000       0.92860000       0.71420000
    49  C          0.74664000       0.90853000       0.37873000
    50  C          0.25336000       0.09147000       0.62127000
    51  C          0.81893000       0.80053000       0.40963000
    52  C          0.18107000       0.19947000       0.59037000
    53  H          0.78730000       0.74010000       0.46130000
    54  H          0.21270000       0.25990000       0.53870000
    55  S          0.83643800       0.95240700       0.03358600
    56  S          0.16356200       0.04759300       0.96641400
    57  Cl         0.90569110       0.42703800       0.34129800
    58  Cl         0.09430890       0.57296200       0.65870200
    59  Cl         0.18482100       0.35400800       0.26296900
    60  Cl         0.81517900       0.64599200       0.73703100
    61  Cl         0.21220100       0.45003900       0.02520900
    62  Cl         0.78779900       0.54996100       0.97479100
    63  Cl         0.13964120       0.70051100       0.88657200
    64  Cl         0.86035880       0.29948900       0.11342800
    65  Cl         0.26761100       0.09824900       0.19573900
    66  Cl         0.73238900       0.90175100       0.80426100
    67  O          0.04432000       0.82602000      -0.00112000
    68  O          0.95568000       0.17398000       0.00112000
    69  O          0.72222000       0.61556190       0.19365190
    70  O          0.27778000       0.38443810       0.80634810
    71  N          0.67013000       0.82582000       0.13382000
    72  N          0.32987000       0.17418000       0.86618000
    73  H          0.63740000       0.76230000       0.16230000
    74  H          0.36260000       0.23770000       0.83770000
    75  C          0.00853000       0.73603000       0.04042000
    76  C         -0.00853000       0.26397000       0.95958000
    77  C          0.88583000       0.72153000       0.10012000
    78  C          0.11417000       0.27847000       0.89988000
    79  C          0.84403000       0.61863000       0.16542000
    80  C          0.15597000       0.38137000       0.83458000
    81  C          0.95273000       0.51173000       0.21863000
    82  C          0.04727000       0.48827000       0.78137000
    83  C          0.07263000       0.47873000       0.18133000
    84  C          0.92737000       0.52127000       0.81867000
    85  C          0.11643000       0.53613000       0.07433000
    86  C          0.88357000       0.46387000       0.92567000
    87  C          0.08543000       0.64623000       0.01323000
    88  C          0.91457000       0.35377000       0.98677000
    89  C          0.79573000       0.82183000       0.09282000
    90  C          0.20427000       0.17817000       0.90718000
    91  C          0.60123000       0.92873000       0.12502000
    92  C          0.39877000       0.07127000       0.87498000
    93  C          0.67853000       0.00963000       0.06992000
    94  C          0.32147000       0.99037000       0.93008000
    95  C          0.62734000       0.11943000       0.05173000
    96  C          0.37266000       0.88057000       0.94827000
    97  H          0.67720000       0.17430000       0.01380000
    98  H          0.32280000       0.82570000       0.98620000
    99  C          0.50144000       0.14463000       0.09133000
   100  C          0.49856000       0.85537000       0.90867000
   101  H          0.46580000       0.21710000       0.08100000
   102  H          0.53420000       0.78290000       0.91900000
   103  C          0.42613000       0.06203000       0.14703000
   104  C          0.57387000       0.93797000       0.85297000
   105  C          0.47403000       0.95363000       0.16533000
   106  C          0.52597000       0.04637000       0.83467000
   107  H          0.42350000       0.89910000       0.20300000
   108  H          0.57650000       0.10090000       0.79700000
   109  C          0.06595000       0.07634000       0.42583000
   110  C          0.93405000       0.92366000       0.57417000
   111  H          0.11040000       0.12850000       0.37490000
   112  H          0.88960000       0.87150000       0.62510000
   113  C          0.93655000       0.11054000       0.45414000
   114  C          0.06345000       0.88946000       0.54586000
   115  H          0.89370000       0.18590000       0.42320000
   116  H          0.10630000       0.81410000       0.57680000
   117  C          0.13085000       0.96616000       0.47164000
   118  C          0.86915000       0.03384000       0.52836000
   119  H          0.21980000       0.94320000       0.45290000
   120  H          0.78020000       0.05680000       0.54710000
