data_ETAGOY
_symmetry_space_group_name_H-M    'P1'
_symmetry_Int_Tables_number       1
loop_
_symmetry_equiv_pos_site_id
_symmetry_equiv_pos_as_xyz
1 x,y,z
_cell_length_a                   10.86416
_cell_length_b                   11.40455
_cell_length_c                   12.93517
_cell_angle_alpha                85.9472
_cell_angle_beta                 85.5852
_cell_angle_gamma                66.7892
loop_
_atom_site_label
_atom_site_type_symbol
_atom_site_fract_x
_atom_site_fract_y
_atom_site_fract_z
     1  I          0.82880800       0.75952200       0.56059800
     2  I          0.17119200       0.24047800       0.43940200
     3  O          0.18340190       0.31162000       0.90839830
     4  O          0.81659810       0.68838000       0.09160170
     5  O          0.14542000       0.95778000       0.29323180
     6  O          0.85458000       0.04222000       0.70676820
     7  O          0.59851180       0.83118000       0.34235190
     8  O          0.40148820       0.16882000       0.65764810
     9  N          0.39752000       0.25993190       0.96021840
    10  N          0.60248000       0.74006810       0.03978160
    11  N          0.50932000       0.28772000       0.95666830
    12  N          0.49068000       0.71228000       0.04333170
    13  N          0.41422000       0.45222000       0.82742820
    14  N          0.58578000       0.54778000       0.17257180
    15  N          0.30662000       0.41872000       0.83234830
    16  N          0.69338000       0.58128000       0.16765170
    17  N          0.26252000       0.90068000       0.32893180
    18  N          0.73748000       0.09932000       0.67106820
    19  N          0.47582000       0.84321810       0.35406180
    20  N          0.52418000       0.15678190       0.64593820
    21  C          0.50922000       0.38402000       0.89239810
    22  C          0.49078000       0.61598000       0.10760190
    23  C          0.28692000       0.32782000       0.90108000
    24  C          0.71308000       0.67218000       0.09892000
    25  C          0.39402000       0.16722000       0.04011190
    26  C          0.60598000       0.83278000       0.95988810
    27  C          0.31033000       0.10193000       0.03782000
    28  C          0.68967000       0.89807000       0.96218000
    29  H          0.25610000       0.11470000       0.98040000
    30  H          0.74390000       0.88530000       0.01960000
    31  C          0.30603000       0.01813000       0.11912000
    32  C          0.69397000       0.98187000       0.88088000
    33  H          0.24680000       0.97520000       0.11800000
    34  H          0.75320000       0.02480000       0.88200000
    35  C          0.38702000      -0.00472000       0.20292000
    36  C          0.61298000       0.00472000       0.79708000
    37  C          0.47713000       0.05562000       0.20152000
    38  C          0.52287000       0.94438000       0.79848000
    39  H          0.53680000       0.03760000       0.25590000
    40  H          0.46320000       0.96240000       0.74410000
    41  C          0.47962000       0.14172000       0.12082000
    42  C          0.52038000       0.85828000       0.87918000
    43  H          0.54000000       0.18330000       0.12080000
    44  H          0.46000000       0.81670000       0.87920000
    45  C          0.37622000       0.91348000       0.29212000
    46  C          0.62378000       0.08652000       0.70788000
    47  C          0.28503000       0.80448000       0.41802000
    48  C          0.71497000       0.19552000       0.58198000
    49  C          0.42672000       0.78858000       0.44942000
    50  C          0.57328000       0.21142000       0.55058000
    51  C          0.28124000       0.68447000       0.37483000
    52  C          0.71876000       0.31553000       0.62517000
    53  H          0.19620000       0.70650000       0.34180000
    54  H          0.80380000       0.29350000       0.65820000
    55  H          0.28890000       0.62070000       0.43160000
    56  H          0.71110000       0.37930000       0.56840000
    57  H          0.35600000       0.64940000       0.32340000
    58  H          0.64400000       0.35060000       0.67660000
    59  C          0.17403000       0.85677000       0.50062000
    60  C          0.82597000       0.14323000       0.49938000
    61  H          0.16740000       0.94110000       0.51880000
    62  H          0.83260000       0.05890000       0.48120000
    63  H          0.19370000       0.79880000       0.56230000
    64  H          0.80630000       0.20120000       0.43770000
    65  H          0.08890000       0.86440000       0.47430000
    66  H          0.91110000       0.13560000       0.52570000
    67  C          0.52473000       0.65197000       0.47013000
    68  C          0.47527000       0.34803000       0.52987000
    69  H          0.54010000       0.60400000       0.40710000
    70  H          0.45990000       0.39600000       0.59290000
    71  H          0.48730000       0.61170000       0.52640000
    72  H          0.51270000       0.38830000       0.47360000
    73  H          0.60990000       0.65210000       0.49000000
    74  H          0.39010000       0.34790000       0.51000000
    75  C          0.42363000       0.87217000       0.53692000
    76  C          0.57637000       0.12783000       0.46308000
    77  H          0.51360000       0.87070000       0.54290000
    78  H          0.48640000       0.12930000       0.45710000
    79  H          0.39430000       0.83980000       0.60220000
    80  H          0.60570000       0.16020000       0.39780000
    81  H          0.36100000       0.96010000       0.52180000
    82  H          0.63900000       0.03990000       0.47820000
    83  C          0.19922000       0.49672000       0.76829810
    84  C          0.80078000       0.50328000       0.23170190
    85  C          0.15223000       0.62853000       0.77248000
    86  C          0.84777000       0.37147000       0.22752000
    87  H          0.19270000       0.66630000       0.81520000
    88  H          0.80730000       0.33370000       0.18480000
    89  C          0.04513000       0.70462000       0.71348000
    90  C          0.95487000       0.29538000       0.28652000
    91  H          0.01090000       0.79500000       0.71610000
    92  H          0.98910000       0.20500000       0.28390000
    93  C          0.98938000       0.64782000       0.65127810
    94  C          0.01062000       0.35218000       0.34872190
    95  C          0.03823000       0.51583000       0.64568000
    96  C          0.96177000       0.48417000       0.35432000
    97  H         -0.00100000       0.47810000       0.60200000
    98  H          0.00100000       0.52190000       0.39800000
    99  C          0.14463000       0.43992000       0.70458000
   100  C          0.85537000       0.56008000       0.29542000
   101  H          0.17960000       0.34960000       0.70120000
   102  H          0.82040000       0.65040000       0.29880000
   103  C          0.62812000       0.41742000       0.89127810
   104  C          0.37188000       0.58258000       0.10872190
   105  C          0.73823000       0.34293000       0.94788000
   106  C          0.26177000       0.65707000       0.05212000
   107  H          0.73680000       0.27100000       0.98910000
   108  H          0.26320000       0.72900000       0.01090000
   109  C          0.85053000       0.37394000       0.94427000
   110  C          0.14947000       0.62606000       0.05573000
   111  H          0.92580000       0.32220000       0.98240000
   112  H          0.07420000       0.67780000       0.01760000
   113  C          0.85333000       0.47753000       0.88667000
   114  C          0.14667000       0.52247000       0.11333000
   115  H          0.93000000       0.49830000       0.88520000
   116  H          0.07000000       0.50170000       0.11480000
   117  C          0.74353000       0.55283000       0.83008000
   118  C          0.25647000       0.44717000       0.16992000
   119  H          0.74540000       0.62480000       0.78940000
   120  H          0.25460000       0.37520000       0.21060000
   121  C          0.63173000       0.52313000       0.83288000
   122  C          0.36827000       0.47687000       0.16712000
   123  H          0.55660000       0.57550000       0.79470000
   124  H          0.44340000       0.42450000       0.20530000
   125  O          0.24443000       0.87647000       0.76937000
   126  O          0.75557000       0.12353000       0.23063000
   127  C          0.13564000       0.10144000       0.73156000
   128  C          0.86436000       0.89856000       0.26844000
   129  H          0.22090000       0.09630000       0.69690000
   130  H          0.77910000       0.90370000       0.30310000
   131  H          0.10170000       0.17350000       0.77740000
   132  H          0.89830000       0.82650000       0.22260000
   133  H          0.07040000       0.11380000       0.67930000
   134  H          0.92960000       0.88620000       0.32070000
   135  C          0.15733000       0.97736000       0.79567000
   136  C          0.84267000       0.02264000       0.20433000
   137  C          0.07285000       0.98285000       0.88456000
   138  C          0.92715000       0.01715000       0.11544000
   139  H          0.07970000       0.89650000       0.90640000
   140  H          0.92030000       0.10350000       0.09360000
   141  H          0.97990000       0.03630000       0.86890000
   142  H          0.02010000       0.96370000       0.13110000
   143  H          0.09990000       0.01960000       0.94070000
   144  H          0.90010000       0.98040000       0.05930000
