data_ETELOF
_symmetry_space_group_name_H-M    'P1'
_symmetry_Int_Tables_number       1
loop_
_symmetry_equiv_pos_site_id
_symmetry_equiv_pos_as_xyz
1 x,y,z
_cell_length_a                   8.65512
_cell_length_b                   12.99174
_cell_length_c                   19.00934
_cell_angle_alpha                109.5962
_cell_angle_beta                 96.0912
_cell_angle_gamma                90.5502
loop_
_atom_site_label
_atom_site_type_symbol
_atom_site_fract_x
_atom_site_fract_y
_atom_site_fract_z
     1  C          0.79176000       0.50553000       0.03962000
     2  C          0.20824000       0.49447000       0.96038000
     3  C          0.71925000       0.45783000       0.96738000
     4  C          0.28075000       0.54217000       0.03262000
     5  C          0.74795000       0.35474000       0.92238000
     6  C          0.25205000       0.64526000       0.07762000
     7  C          0.85645000       0.29673000       0.94908000
     8  C          0.14355000       0.70327000       0.05092000
     9  C          0.93165000       0.34134000       0.02103000
    10  C          0.06835000       0.65866000       0.97897000
    11  C          0.90156000       0.44433000       0.06732000
    12  C          0.09844000       0.55567000       0.93268000
    13  F          0.61347000       0.51282190       0.93830860
    14  F          0.38653000       0.48717810       0.06169140
    15  F          0.67557000       0.31041190       0.85286870
    16  F          0.32443000       0.68958810       0.14713130
    17  F          0.88897000       0.19619190       0.90530860
    18  F          0.11103000       0.80380810       0.09469140
    19  F          0.03463000       0.27982190       0.04496140
    20  F          0.96537000       0.72017810       0.95503860
    21  I          0.74321700       0.66572200       0.10005917
    22  I          0.25678300       0.33427800       0.89994083
    23  I          0.02242300       0.50259300       0.17549617
    24  I          0.97757700       0.49740700       0.82450383
    25  C          0.88646000       0.85773000       0.47652000
    26  C          0.11354000       0.14227000       0.52348000
    27  C          0.88815000       0.87284000       0.55073000
    28  C          0.11185000       0.12716000       0.44927000
    29  C          0.80565000       0.95234000       0.59692000
    30  C          0.19435000       0.04766000       0.40308000
    31  C          0.71725000       0.01874000       0.56833000
    32  C          0.28275000       0.98126000       0.43167000
    33  C          0.71485000       0.00534000       0.49293000
    34  C          0.28515000      -0.00534000       0.50707000
    35  C          0.79655000       0.92633000       0.44602000
    36  C          0.20345000       0.07367000       0.55398000
    37  F          0.97247000       0.81042000       0.58285140
    38  F          0.02753000       0.18958000       0.41714860
    39  F          0.80937000       0.96352000       0.67032140
    40  F          0.19063000       0.03648000       0.32967860
    41  F          0.63757000       0.09562000       0.61348150
    42  F          0.36243000       0.90438000       0.38651850
    43  F          0.62717000       0.07352000       0.46800140
    44  F          0.37283000       0.92648000       0.53199860
    45  I          0.02060300       0.73530200       0.41242517
    46  I          0.97939700       0.26469800       0.58757483
    47  I          0.77582600       0.91174300       0.33244117
    48  I          0.22417400       0.08825700       0.66755883
    49  C          0.78255000       0.05943000       0.14572000
    50  C          0.21745000       0.94057000       0.85428000
    51  C          0.66815000       0.14123000       0.13632000
    52  C          0.33185000       0.85877000       0.86368000
    53  C          0.70015000       0.24073000       0.12922000
    54  C          0.29985000       0.75927000       0.87078000
    55  H          0.80470000       0.26670000       0.13280000
    56  H          0.19530000       0.73330000       0.86720000
    57  C          0.57675000       0.30314000       0.11682000
    58  C          0.42325000       0.69686000       0.88318000
    59  H          0.59750000       0.37120000       0.11050000
    60  H          0.40250000       0.62880000       0.88950000
    61  C          0.42575000       0.26714000       0.11362000
    62  C          0.57425000       0.73286000       0.88638000
    63  H          0.34320000       0.31060000       0.10510000
    64  H          0.65680000       0.68940000       0.89490000
    65  C          0.39255000       0.16824000       0.12252000
    66  C          0.60745000       0.83176000       0.87748000
    67  H          0.28800000       0.14390000       0.12100000
    68  H          0.71200000       0.85610000       0.87900000
    69  C          0.51515000       0.10503000       0.13382000
    70  C          0.48485000       0.89497000       0.86618000
    71  C          0.50485000      -0.00417000       0.14402000
    72  C          0.49515000       0.00417000       0.85598000
    73  C          0.90475000       0.10473000       0.21432000
    74  C          0.09525000       0.89527000       0.78568000
    75  H          0.96510000       0.04470000       0.22130000
    76  H          0.03490000       0.95530000       0.77870000
    77  H          0.85280000       0.13970000       0.25910000
    78  H          0.14720000       0.86030000       0.74090000
    79  H          0.97460000       0.15850000       0.20640000
    80  H          0.02540000       0.84150000       0.79360000
    81  C          0.85765000       0.00313000       0.07512000
    82  C          0.14235000      -0.00313000       0.92488000
    83  H          0.77670000       0.97300000       0.03250000
    84  H          0.22330000       0.02700000       0.96750000
    85  H          0.91950000       0.94370000       0.08200000
    86  H          0.08050000       0.05630000       0.91800000
    87  H          0.92540000       0.05610000       0.06490000
    88  H          0.07460000       0.94390000       0.93510000
    89  C          0.42345000      -0.00507000       0.20982000
    90  C          0.57655000       0.00507000       0.79018000
    91  H          0.47290000       0.05100000       0.25560000
    92  H          0.52710000       0.94900000       0.74440000
    93  H          0.43070000       0.92290000       0.21550000
    94  H          0.56930000       0.07710000       0.78450000
    95  H          0.31390000       0.01040000       0.20110000
    96  H          0.68610000      -0.01040000       0.79890000
    97  C          0.44045000       0.90403000       0.07162000
    98  C          0.55955000       0.09597000       0.92838000
    99  H          0.44800000       0.83340000       0.07960000
   100  H          0.55200000       0.16660000       0.92040000
   101  H          0.50110000       0.90410000       0.03090000
   102  H          0.49890000       0.09590000       0.96910000
   103  H          0.33140000       0.91590000       0.05810000
   104  H          0.66860000       0.08410000       0.94190000
   105  N          0.67536000       0.97943000       0.15904180
   106  N          0.32464000       0.02057000       0.84095820
   107  O          0.72337000       0.89812000       0.17557150
   108  O          0.27663000       0.10188000       0.82442850
   109  C          0.48335000       0.55553000       0.34182000
   110  C          0.51665000       0.44447000       0.65818000
   111  C          0.56605000       0.46023000       0.35442000
   112  C          0.43395000       0.53977000       0.64558000
   113  C          0.72395000       0.44244000       0.35722000
   114  C          0.27605000       0.55756000       0.64278000
   115  H          0.79480000       0.49220000       0.34880000
   116  H          0.20520000       0.50780000       0.65120000
   117  C          0.77655000       0.35144000       0.37233000
   118  C          0.22345000       0.64856000       0.62767000
   119  H          0.88450000       0.33880000       0.37410000
   120  H          0.11550000       0.66120000       0.62590000
   121  C          0.67575000       0.27864000       0.38462000
   122  C          0.32425000       0.72136000       0.61538000
   123  H          0.71450000       0.21640000       0.39490000
   124  H          0.28550000       0.78360000       0.60510000
   125  C          0.51715000       0.29573000       0.38222000
   126  C          0.48285000       0.70427000       0.61778000
   127  H          0.44660000       0.24590000       0.39080000
   128  H          0.55340000       0.75410000       0.60920000
   129  C          0.46495000       0.38723000       0.36682000
   130  C          0.53505000       0.61277000       0.63318000
   131  C          0.29915000       0.41983000       0.36202000
   132  C          0.70085000       0.58017000       0.63798000
   133  C          0.51805000       0.66253000       0.40792000
   134  C          0.48195000       0.33747000       0.59208000
   135  H          0.50680000       0.64940000       0.45500000
   136  H          0.49320000       0.35060000       0.54500000
   137  H          0.44490000       0.71690000       0.40190000
   138  H          0.55510000       0.28310000       0.59810000
   139  H          0.62460000       0.68960000       0.40900000
   140  H          0.37540000       0.31040000       0.59100000
   141  C          0.50965000       0.57084000       0.26752000
   142  C          0.49035000       0.42916000       0.73248000
   143  H          0.44940000       0.63160000       0.26170000
   144  H          0.55060000       0.36840000       0.73830000
   145  H          0.47570000       0.50360000       0.22570000
   146  H          0.52430000       0.49640000       0.77430000
   147  H          0.62040000       0.58710000       0.26760000
   148  H          0.37960000       0.41290000       0.73240000
   149  C          0.23134000       0.45423000       0.43652000
   150  C          0.76866000       0.54577000       0.56348000
   151  H          0.13070000       0.48630000       0.43100000
   152  H          0.86930000       0.51370000       0.56900000
   153  H          0.30270000       0.50830000       0.47490000
   154  H          0.69730000       0.49170000       0.52510000
   155  H          0.21680000       0.39010000       0.45170000
   156  H          0.78320000       0.60990000       0.54830000
   157  C          0.19294000       0.33363000       0.29992000
   158  C          0.80706000       0.66637000       0.70008000
   159  H          0.23800000       0.31560000       0.25230000
   160  H          0.76200000       0.68440000       0.74770000
   161  H          0.09000000       0.36270000       0.29450000
   162  H          0.91000000       0.63730000       0.70550000
   163  H          0.18300000       0.26750000       0.31340000
   164  H          0.81700000       0.73250000       0.68660000
   165  N          0.31984000       0.51713000       0.33900190
   166  N          0.68016000       0.48287000       0.66099810
   167  O          0.20543000       0.57012000       0.32379160
   168  O          0.79457000       0.42988000       0.67620840
