data_ETEWEI
_symmetry_space_group_name_H-M    'P1'
_symmetry_Int_Tables_number       1
loop_
_symmetry_equiv_pos_site_id
_symmetry_equiv_pos_as_xyz
1 x,y,z
_cell_length_a                   13.35354
_cell_length_b                   7.56182
_cell_length_c                   24.35008
_cell_angle_alpha                90.0
_cell_angle_beta                 90.95901
_cell_angle_gamma                90.0
loop_
_atom_site_label
_atom_site_type_symbol
_atom_site_fract_x
_atom_site_fract_y
_atom_site_fract_z
     1  C          0.52135100       0.86734190       0.33423500
     2  C          0.47864900       0.36734190       0.16576500
     3  C          0.47864900       0.13265810       0.66576500
     4  C          0.52135100       0.63265810       0.83423500
     5  C          0.43584110       0.91832000       0.36232600
     6  C          0.56415890       0.41832000       0.13767400
     7  C          0.56415890       0.08168000       0.63767400
     8  C          0.43584110       0.58168000       0.86232600
     9  H          0.37780000       0.95600000       0.34250000
    10  H          0.62220000       0.45600000       0.15750000
    11  H          0.62220000       0.04400000       0.65750000
    12  H          0.37780000       0.54400000       0.84250000
    13  C          0.43584120       0.91392000       0.41927600
    14  C          0.56415880       0.41392000       0.08072400
    15  C          0.56415880       0.08608000       0.58072400
    16  C          0.43584120       0.58608000       0.91927600
    17  H          0.37740000       0.94720000       0.43850000
    18  H          0.62260000       0.44720000       0.06150000
    19  H          0.62260000       0.05280000       0.56150000
    20  H          0.37740000       0.55280000       0.93850000
    21  C          0.52104120       0.86072000       0.44821600
    22  C          0.47895880       0.36072000       0.05178400
    23  C          0.47895880       0.13928000       0.55178400
    24  C          0.52104120       0.63928000       0.94821600
    25  H          0.52050000       0.85800000       0.48720000
    26  H          0.47950000       0.35800000       0.01280000
    27  H          0.47950000       0.14200000       0.51280000
    28  H          0.52050000       0.64200000       0.98720000
    29  C          0.60662110       0.81182000       0.42093600
    30  C          0.39337890       0.31182000       0.07906400
    31  C          0.39337890       0.18818000       0.57906400
    32  C          0.60662110       0.68818000       0.92093600
    33  H          0.66480000       0.77660000       0.44110000
    34  H          0.33520000       0.27660000       0.05890000
    35  H          0.33520000       0.22340000       0.55890000
    36  H          0.66480000       0.72340000       0.94110000
    37  C          0.60717100       0.81431190       0.36383600
    38  C          0.39282900       0.31431190       0.13616400
    39  C          0.39282900       0.18568810       0.63616400
    40  C          0.60717100       0.68568810       0.86383600
    41  C          0.44985100       0.84208190       0.24540500
    42  C          0.55014900       0.34208190       0.25459500
    43  C          0.55014900       0.15791810       0.75459500
    44  C          0.44985100       0.65791810       0.74540500
    45  H          0.38890000       0.80730000       0.26180000
    46  H          0.61110000       0.30730000       0.23820000
    47  H          0.61110000       0.19270000       0.73820000
    48  H          0.38890000       0.69270000       0.76180000
    49  C          0.45423100       0.85771190       0.18674500
    50  C          0.54576900       0.35771190       0.31325500
    51  C          0.54576900       0.14228810       0.81325500
    52  C          0.45423100       0.64228810       0.68674500
    53  C          0.36962110       0.80850190       0.15207600
    54  C          0.63037890       0.30850190       0.34792400
    55  C          0.63037890       0.19149810       0.84792400
    56  C          0.36962110       0.69149810       0.65207600
    57  C          0.27798110       0.74542000       0.17250600
    58  C          0.72201890       0.24542000       0.32749400
    59  C          0.72201890       0.25458000       0.82749400
    60  C          0.27798110       0.75458000       0.67250600
    61  H          0.26960000       0.73590000       0.21110000
    62  H          0.73040000       0.23590000       0.28890000
    63  H          0.73040000       0.26410000       0.78890000
    64  H          0.26960000       0.76410000       0.71110000
    65  C          0.20069130       0.69763000       0.13762700
    66  C          0.79930870       0.19763000       0.36237300
    67  C          0.79930870       0.30237000       0.86237300
    68  C          0.20069130       0.80237000       0.63762700
    69  H          0.13930000       0.65720000       0.15230000
    70  H          0.86070000       0.15720000       0.34770000
    71  H          0.86070000       0.34280000       0.84770000
    72  H          0.13930000       0.84280000       0.65230000
    73  C          0.21143140       0.70773000       0.08065800
    74  C          0.78856860       0.20773000       0.41934200
    75  C          0.78856860       0.29227000       0.91934200
    76  C          0.21143140       0.79227000       0.58065800
    77  H          0.15850000       0.67060000       0.05680000
    78  H          0.84150000       0.17060000       0.44320000
    79  H          0.84150000       0.32940000       0.94320000
    80  H          0.15850000       0.82940000       0.55680000
    81  C          0.29794150       0.77093000       0.05958700
    82  C          0.70205850       0.27093000       0.44041300
    83  C          0.70205850       0.22907000       0.94041300
    84  C          0.29794150       0.72907000       0.55958700
    85  H          0.30450000       0.77940000       0.02090000
    86  H          0.69550000       0.27940000       0.47910000
    87  H          0.69550000       0.22060000       0.97910000
    88  H          0.30450000       0.72060000       0.52090000
    89  C          0.37837120       0.82422000       0.09422600
    90  C          0.62162880       0.32422000       0.40577400
    91  C          0.62162880       0.17578000       0.90577400
    92  C          0.37837120       0.67578000       0.59422600
    93  C          0.46854140       0.89152000       0.07226600
    94  C          0.53145860       0.39152000       0.42773400
    95  C          0.53145860       0.10848000       0.92773400
    96  C          0.46854140       0.60848000       0.57226600
    97  H          0.47360000       0.90390000       0.03360000
    98  H          0.52640000       0.40390000       0.46640000
    99  H          0.52640000       0.09610000       0.96640000
   100  H          0.47360000       0.59610000       0.53360000
   101  C          0.54754130       0.93872000       0.10458600
   102  C          0.45245870       0.43872000       0.39541400
   103  C          0.45245870       0.06128000       0.89541400
   104  C          0.54754130       0.56128000       0.60458600
   105  H          0.60650000      -0.01560000       0.08850000
   106  H          0.39350000       0.48440000       0.41150000
   107  H          0.39350000       0.01560000       0.91150000
   108  H          0.60650000       0.51560000       0.58850000
   109  C          0.54247110       0.92002000       0.16246600
   110  C          0.45752890       0.42002000       0.33753400
   111  C          0.45752890       0.07998000       0.83753400
   112  C          0.54247110       0.57998000       0.66246600
   113  C          0.78243100       0.75164190       0.35340600
   114  C          0.21756900       0.25164190       0.14659400
   115  C          0.21756900       0.24835810       0.64659400
   116  C          0.78243100       0.74835810       0.85340600
   117  H          0.79540000       0.79280000       0.38970000
   118  H          0.20460000       0.29280000       0.11030000
   119  H          0.20460000       0.20720000       0.61030000
   120  H          0.79540000       0.70720000       0.88970000
   121  C          0.86269100       0.68601180       0.32248600
   122  C          0.13730900       0.18601180       0.17751400
   123  C          0.13730900       0.31398820       0.67751400
   124  C          0.86269100       0.81398820       0.82248600
   125  C          0.96469100       0.69144180       0.34424600
   126  C          0.03530900       0.19144180       0.15575400
   127  C          0.03530900       0.30855820       0.65575400
   128  C          0.96469100       0.80855820       0.84424600
   129  C         -0.00897890       0.76992000       0.39518600
   130  C          0.00897890       0.26992000       0.10481400
   131  C          0.00897890       0.23008000       0.60481400
   132  C         -0.00897890       0.73008000       0.89518600
   133  H          0.94010000       0.81900000       0.41730000
   134  H          0.05990000       0.31900000       0.08270000
   135  H          0.05990000       0.18100000       0.58270000
   136  H          0.94010000       0.68100000       0.91730000
   137  C          0.08979120       0.77642000       0.41328700
   138  C          0.91020880       0.27642000       0.08671300
   139  C          0.91020880       0.22358000       0.58671300
   140  C          0.08979120       0.72358000       0.91328700
   141  H          0.10590000       0.82960000       0.44760000
   142  H          0.89410000       0.32960000       0.05240000
   143  H          0.89410000       0.17040000       0.55240000
   144  H          0.10590000       0.67040000       0.94760000
   145  C          0.16603110       0.70522000       0.38127800
   146  C          0.83396890       0.20522000       0.11872200
   147  C          0.83396890       0.29478000       0.61872200
   148  C          0.16603110       0.79478000       0.88127800
   149  H          0.23370000       0.71070000       0.39380000
   150  H          0.76630000       0.21070000       0.10620000
   151  H          0.76630000       0.28930000       0.60620000
   152  H          0.23370000       0.78930000       0.89380000
   153  C          0.14277120       0.62762000       0.33203700
   154  C          0.85722880       0.12762000       0.16796300
   155  C          0.85722880       0.37238000       0.66796300
   156  C          0.14277120       0.87238000       0.83203700
   157  H          0.19470000       0.57890000       0.31060000
   158  H          0.80530000       0.07890000       0.18940000
   159  H          0.80530000       0.42110000       0.68940000
   160  H          0.19470000       0.92110000       0.81060000
   161  C          0.04276110       0.61882000       0.31257600
   162  C          0.95723890       0.11882000       0.18742400
   163  C          0.95723890       0.38118000       0.68742400
   164  C          0.04276110       0.88118000       0.81257600
   165  C          0.01879120       0.54132000       0.26031700
   166  C          0.98120880       0.04132000       0.23968300
   167  C          0.98120880       0.45868000       0.73968300
   168  C          0.01879120       0.95868000       0.76031700
   169  H          0.07100000       0.48950000       0.23970000
   170  H          0.92900000      -0.01050000       0.26030000
   171  H          0.92900000       0.51050000       0.76030000
   172  H          0.07100000       0.01050000       0.73970000
   173  C          0.92480130       0.53932000       0.23932700
   174  C          0.07519870       0.03932000       0.26067300
   175  C          0.07519870       0.46068000       0.76067300
   176  C          0.92480130       0.96068000       0.73932700
   177  H          0.91250000       0.48760000       0.20430000
   178  H          0.08750000      -0.01240000       0.29570000
   179  H          0.08750000       0.51240000       0.79570000
   180  H          0.91250000       0.01240000       0.70430000
   181  C          0.84275110       0.61392000       0.26892600
   182  C          0.15724890       0.11392000       0.23107400
   183  C          0.15724890       0.38608000       0.73107400
   184  C          0.84275110       0.88608000       0.76892600
   185  N          0.52758800       0.87456170       0.27651500
   186  N          0.47241200       0.37456170       0.22348500
   187  N          0.47241200       0.12543830       0.72348500
   188  N          0.52758800       0.62543830       0.77651500
   189  N          0.69052800       0.75776160       0.33369500
   190  N          0.30947200       0.25776160       0.16630500
   191  N          0.30947200       0.24223840       0.66630500
   192  N          0.69052800       0.74223840       0.83369500
   193  H          0.68020000       0.72440000       0.29940000
   194  H          0.31980000       0.22440000       0.20060000
   195  H          0.31980000       0.27560000       0.70060000
   196  H          0.68020000       0.77560000       0.79940000
   197  O          0.62323800       0.96494170       0.19178500
   198  O          0.37676200       0.46494170       0.30821500
   199  O          0.37676200       0.03505830       0.80821500
   200  O          0.62323800       0.53505830       0.69178500
   201  H          0.61260000       0.94760000       0.22530000
   202  H          0.38740000       0.44760000       0.27470000
   203  H          0.38740000       0.05240000       0.77470000
   204  H          0.61260000       0.55240000       0.72530000
   205  O          0.75441800       0.61204160       0.24658400
   206  O          0.24558200       0.11204160       0.25341600
   207  O          0.24558200       0.38795840       0.75341600
   208  O          0.75441800       0.88795840       0.74658400
   209  C          0.78295150       0.70893000       0.10776800
   210  C          0.21704850       0.20893000       0.39223200
   211  C          0.21704850       0.29107000       0.89223200
   212  C          0.78295150       0.79107000       0.60776800
   213  H          0.71000000       0.69530000       0.10700000
   214  H          0.29000000       0.19530000       0.39300000
   215  H          0.29000000       0.30470000       0.89300000
   216  H          0.71000000       0.80470000       0.60700000
   217  H          0.80260000       0.78980000       0.13740000
   218  H          0.19740000       0.28980000       0.36260000
   219  H          0.19740000       0.21020000       0.86260000
   220  H          0.80260000       0.71020000       0.63740000
   221  H          0.81440000       0.59330000       0.11400000
   222  H          0.18560000       0.09330000       0.38600000
   223  H          0.18560000       0.40670000       0.88600000
   224  H          0.81440000       0.90670000       0.61400000
   225  C          0.95311140       0.80083000       0.06000900
   226  C          0.04688860       0.30083000       0.43999100
   227  C          0.04688860       0.19917000       0.93999100
   228  C          0.95311140       0.69917000       0.56000900
   229  H          0.97610000       0.68120000       0.06920000
   230  H          0.02390000       0.18120000       0.43080000
   231  H          0.02390000       0.31880000       0.93080000
   232  H          0.97610000       0.81880000       0.56920000
   233  H          0.96530000       0.87940000       0.09140000
   234  H          0.03470000       0.37940000       0.40860000
   235  H          0.03470000       0.12060000       0.90860000
   236  H          0.96530000       0.62060000       0.59140000
   237  H         -0.01020000       0.84440000       0.02820000
   238  H          0.01020000       0.34440000       0.47180000
   239  H          0.01020000       0.15560000       0.97180000
   240  H         -0.01020000       0.65560000       0.52820000
   241  O          0.80919120       0.65112000       0.00241600
   242  O          0.19080880       0.15112000       0.49758400
   243  O          0.19080880       0.34888000      -0.00241600
   244  O          0.80919120       0.84888000       0.50241600
   245  S          0.82265300       0.79602600       0.04392518
   246  S          0.17734700       0.29602600       0.45607482
   247  S          0.17734700       0.20397400       0.95607482
   248  S          0.82265300       0.70397400       0.54392518
