data_ETUCAA
_symmetry_space_group_name_H-M    'P1'
_symmetry_Int_Tables_number       1
loop_
_symmetry_equiv_pos_site_id
_symmetry_equiv_pos_as_xyz
1 x,y,z
_cell_length_a                   18.92213
_cell_length_b                   6.2974
_cell_length_c                   24.31116
_cell_angle_alpha                90.0
_cell_angle_beta                 104.7486
_cell_angle_gamma                90.0
loop_
_atom_site_label
_atom_site_type_symbol
_atom_site_fract_x
_atom_site_fract_y
_atom_site_fract_z
     1  Cl         0.15919500       0.58702000       0.17420500
     2  Cl         0.84080500       0.58702000       0.32579500
     3  Cl         0.65919500       0.08702000       0.17420500
     4  Cl         0.34080500       0.08702000       0.32579500
     5  Cl         0.84080500       0.41298000       0.82579500
     6  Cl         0.15919500       0.41298000       0.67420500
     7  Cl         0.34080500       0.91298000       0.82579500
     8  Cl         0.65919500       0.91298000       0.67420500
     9  N          0.09925180       0.60096000       0.25915160
    10  N          0.90074820       0.60096000       0.24084840
    11  N          0.59925180       0.10096000       0.25915160
    12  N          0.40074820       0.10096000       0.24084840
    13  N          0.90074820       0.39904000       0.74084840
    14  N          0.09925180       0.39904000       0.75915160
    15  N          0.40074820       0.89904000       0.74084840
    16  N          0.59925180       0.89904000       0.75915160
    17  N          0.22925170       0.59046000       0.28031150
    18  N          0.77074830       0.59046000       0.21968850
    19  N          0.72925170       0.09046000       0.28031150
    20  N          0.27074830       0.09046000       0.21968850
    21  N          0.77074830       0.40954000       0.71968850
    22  N          0.22925170       0.40954000       0.78031150
    23  N          0.27074830       0.90954000       0.71968850
    24  N          0.72925170       0.90954000       0.78031150
    25  N          0.04394190       0.62337000       0.33285170
    26  N          0.95605810       0.62337000       0.16714830
    27  N          0.54394190       0.12337000       0.33285170
    28  N          0.45605810       0.12337000       0.16714830
    29  N          0.95605810       0.37663000       0.66714830
    30  N          0.04394190       0.37663000       0.83285170
    31  N          0.45605810       0.87663000       0.66714830
    32  N          0.54394190       0.87663000       0.83285170
    33  H          0.00260000       0.62060000       0.30610000
    34  H         -0.00260000       0.62060000       0.19390000
    35  H          0.50260000       0.12060000       0.30610000
    36  H          0.49740000       0.12060000       0.19390000
    37  H         -0.00260000       0.37940000       0.69390000
    38  H          0.00260000       0.37940000       0.80610000
    39  H          0.49740000       0.87940000       0.69390000
    40  H          0.50260000       0.87940000       0.80610000
    41  N          0.17001180       0.60847000       0.35711160
    42  N          0.82998820       0.60847000       0.14288840
    43  N          0.67001180       0.10847000       0.35711160
    44  N          0.32998820       0.10847000       0.14288840
    45  N          0.82998820       0.39153000       0.64288840
    46  N          0.17001180       0.39153000       0.85711160
    47  N          0.32998820       0.89153000       0.64288840
    48  N          0.67001180       0.89153000       0.85711160
    49  N          0.29583180       0.58907000       0.37341160
    50  N          0.70416820       0.58907000       0.12658840
    51  N          0.79583180       0.08907000       0.37341160
    52  N          0.20416820       0.08907000       0.12658840
    53  N          0.70416820       0.41093000       0.62658840
    54  N          0.29583180       0.41093000       0.87341160
    55  N          0.20416820       0.91093000       0.62658840
    56  N          0.79583180       0.91093000       0.87341160
    57  H          0.33410000       0.57600000       0.35930000
    58  H          0.66590000       0.57600000       0.14070000
    59  H          0.83410000       0.07600000       0.35930000
    60  H          0.16590000       0.07600000       0.14070000
    61  H          0.66590000       0.42400000       0.64070000
    62  H          0.33410000       0.42400000       0.85930000
    63  H          0.16590000       0.92400000       0.64070000
    64  H          0.83410000       0.92400000       0.85930000
    65  C          0.23032000       0.59638000       0.33696190
    66  C          0.76968000       0.59638000       0.16303810
    67  C          0.73032000       0.09638000       0.33696190
    68  C          0.26968000       0.09638000       0.16303810
    69  C          0.76968000       0.40362000       0.66303810
    70  C          0.23032000       0.40362000       0.83696190
    71  C          0.26968000       0.90362000       0.66303810
    72  C          0.73032000       0.90362000       0.83696190
    73  C          0.16282000       0.59547000       0.24649180
    74  C          0.83718000       0.59547000       0.25350820
    75  C          0.66282000       0.09547000       0.24649180
    76  C          0.33718000       0.09547000       0.25350820
    77  C          0.83718000       0.40453000       0.75350820
    78  C          0.16282000       0.40453000       0.74649180
    79  C          0.33718000       0.90453000       0.75350820
    80  C          0.66282000       0.90453000       0.74649180
    81  C          0.10682000       0.60967000       0.31683190
    82  C          0.89318000       0.60967000       0.18316810
    83  C          0.60682000       0.10967000       0.31683190
    84  C          0.39318000       0.10967000       0.18316810
    85  C          0.89318000       0.39033000       0.68316810
    86  C          0.10682000       0.39033000       0.81683190
    87  C          0.39318000       0.89033000       0.68316810
    88  C          0.60682000       0.89033000       0.81683190
    89  C          0.04012000       0.64229000       0.39182000
    90  C          0.95988000       0.64229000       0.10818000
    91  C          0.54012000       0.14229000       0.39182000
    92  C          0.45988000       0.14229000       0.10818000
    93  C          0.95988000       0.35771000       0.60818000
    94  C          0.04012000       0.35771000       0.89182000
    95  C          0.45988000       0.85771000       0.60818000
    96  C          0.54012000       0.85771000       0.89182000
    97  H         -0.00470000       0.72160000       0.39300000
    98  H          0.00470000       0.72160000       0.10700000
    99  H          0.49530000       0.22160000       0.39300000
   100  H          0.50470000       0.22160000       0.10700000
   101  H          0.00470000       0.27840000       0.60700000
   102  H         -0.00470000       0.27840000       0.89300000
   103  H          0.50470000       0.77840000       0.60700000
   104  H          0.49530000       0.77840000       0.89300000
   105  H          0.08270000       0.72440000       0.41350000
   106  H          0.91730000       0.72440000       0.08650000
   107  H          0.58270000       0.22440000       0.41350000
   108  H          0.41730000       0.22440000       0.08650000
   109  H          0.91730000       0.27560000       0.58650000
   110  H          0.08270000       0.27560000       0.91350000
   111  H          0.41730000       0.77560000       0.58650000
   112  H          0.58270000       0.77560000       0.91350000
   113  C          0.30903000       0.60091000       0.43502000
   114  C          0.69097000       0.60091000       0.06498000
   115  C          0.80903000       0.10091000       0.43502000
   116  C          0.19097000       0.10091000       0.06498000
   117  C          0.69097000       0.39909000       0.56498000
   118  C          0.30903000       0.39909000       0.93502000
   119  C          0.19097000       0.89909000       0.56498000
   120  C          0.80903000       0.89909000       0.93502000
   121  H          0.26800000       0.52730000       0.44640000
   122  H          0.73200000       0.52730000       0.05360000
   123  H          0.76800000       0.02730000       0.44640000
   124  H          0.23200000       0.02730000       0.05360000
   125  H          0.73200000       0.47270000       0.55360000
   126  H          0.26800000       0.47270000       0.94640000
   127  H          0.23200000       0.97270000       0.55360000
   128  H          0.76800000       0.97270000       0.94640000
   129  C          0.03914000       0.42931200       0.41963000
   130  C          0.96086000       0.42931200       0.08037000
   131  C          0.53914000       0.92931200       0.41963000
   132  C          0.46086000       0.92931200       0.08037000
   133  C          0.96086000       0.57068800       0.58037000
   134  C          0.03914000       0.57068800       0.91963000
   135  C          0.46086000       0.07068800       0.58037000
   136  C          0.53914000       0.07068800       0.91963000
   137  H         -0.00250000       0.34620000       0.39790000
   138  H          0.00250000       0.34620000       0.10210000
   139  H          0.49750000       0.84620000       0.39790000
   140  H          0.50250000       0.84620000       0.10210000
   141  H          0.00250000       0.65380000       0.60210000
   142  H         -0.00250000       0.65380000       0.89790000
   143  H          0.50250000       0.15380000       0.60210000
   144  H          0.49750000       0.15380000       0.89790000
   145  H          0.03440000       0.44940000       0.45850000
   146  H          0.96560000       0.44940000       0.04150000
   147  H          0.53440000       0.94940000       0.45850000
   148  H          0.46560000       0.94940000       0.04150000
   149  H          0.96560000       0.55060000       0.54150000
   150  H          0.03440000       0.55060000       0.95850000
   151  H          0.46560000       0.05060000       0.54150000
   152  H          0.53440000       0.05060000       0.95850000
   153  H          0.08460000       0.35350000       0.42060000
   154  H          0.91540000       0.35350000       0.07940000
   155  H          0.58460000       0.85350000       0.42060000
   156  H          0.41540000       0.85350000       0.07940000
   157  H          0.91540000       0.64650000       0.57940000
   158  H          0.08460000       0.64650000       0.92060000
   159  H          0.41540000       0.14650000       0.57940000
   160  H          0.58460000       0.14650000       0.92060000
   161  C          0.31173000       0.83061100       0.45513000
   162  C          0.68827000       0.83061100       0.04487000
   163  C          0.81173000       0.33061100       0.45513000
   164  C          0.18827000       0.33061100       0.04487000
   165  C          0.68827000       0.16938900       0.54487000
   166  C          0.31173000       0.16938900       0.95513000
   167  C          0.18827000       0.66938900       0.54487000
   168  C          0.81173000       0.66938900       0.95513000
   169  H          0.35330000       0.90290000       0.44610000
   170  H          0.64670000       0.90290000       0.05390000
   171  H          0.85330000       0.40290000       0.44610000
   172  H          0.14670000       0.40290000       0.05390000
   173  H          0.64670000       0.09710000       0.55390000
   174  H          0.35330000       0.09710000       0.94610000
   175  H          0.14670000       0.59710000       0.55390000
   176  H          0.85330000       0.59710000       0.94610000
   177  H          0.31740000       0.83380000       0.49630000
   178  H          0.68260000       0.83380000       0.00370000
   179  H          0.81740000       0.33380000       0.49630000
   180  H          0.18260000       0.33380000       0.00370000
   181  H          0.68260000       0.16620000       0.50370000
   182  H          0.31740000       0.16620000      -0.00370000
   183  H          0.18260000       0.66620000       0.50370000
   184  H          0.81740000       0.66620000      -0.00370000
   185  H          0.26630000       0.90280000       0.43580000
   186  H          0.73370000       0.90280000       0.06420000
   187  H          0.76630000       0.40280000       0.43580000
   188  H          0.23370000       0.40280000       0.06420000
   189  H          0.73370000       0.09720000       0.56420000
   190  H          0.26630000       0.09720000       0.93580000
   191  H          0.23370000       0.59720000       0.56420000
   192  H          0.76630000       0.59720000       0.93580000
   193  C          0.38023000       0.48401200       0.46223000
   194  C          0.61977000       0.48401200       0.03777000
   195  C          0.88023000      -0.01598800       0.46223000
   196  C          0.11977000      -0.01598800       0.03777000
   197  C          0.61977000       0.51598800       0.53777000
   198  C          0.38023000       0.51598800       0.96223000
   199  C          0.11977000       0.01598800       0.53777000
   200  C          0.88023000       0.01598800       0.96223000
   201  H          0.37620000       0.33570000       0.44960000
   202  H          0.62380000       0.33570000       0.05040000
   203  H          0.87620000       0.83570000       0.44960000
   204  H          0.12380000       0.83570000       0.05040000
   205  H          0.62380000       0.66430000       0.55040000
   206  H          0.37620000       0.66430000       0.94960000
   207  H          0.12380000       0.16430000       0.55040000
   208  H          0.87620000       0.16430000       0.94960000
   209  H          0.38930000       0.48910000       0.50370000
   210  H          0.61070000       0.48910000      -0.00370000
   211  H          0.88930000      -0.01090000       0.50370000
   212  H          0.11070000      -0.01090000      -0.00370000
   213  H          0.61070000       0.51090000       0.49630000
   214  H          0.38930000       0.51090000       0.00370000
   215  H          0.11070000       0.01090000       0.49630000
   216  H          0.88930000       0.01090000       0.00370000
   217  H          0.42080000       0.55240000       0.45080000
   218  H          0.57920000       0.55240000       0.04920000
   219  H          0.92080000       0.05240000       0.45080000
   220  H          0.07920000       0.05240000       0.04920000
   221  H          0.57920000       0.44760000       0.54920000
   222  H          0.42080000       0.44760000       0.95080000
   223  H          0.07920000       0.94760000       0.54920000
   224  H          0.92080000       0.94760000       0.95080000
   225  O          0.41697160       0.58736000       0.31769140
   226  O          0.58302840       0.58736000       0.18230860
   227  O          0.91697160       0.08736000       0.31769140
   228  O          0.08302840       0.08736000       0.18230860
   229  O          0.58302840       0.41264000       0.68230860
   230  O          0.41697160       0.41264000       0.81769140
   231  O          0.08302840       0.91264000       0.68230860
   232  O          0.91697160       0.91264000       0.81769140
   233  O          0.34043150       0.59896000       0.23010140
   234  O          0.65956850       0.59896000       0.26989860
   235  O          0.84043150       0.09896000       0.23010140
   236  O          0.15956850       0.09896000       0.26989860
   237  O          0.65956850       0.40104000       0.76989860
   238  O          0.34043150       0.40104000       0.73010140
   239  O          0.15956850       0.90104000       0.76989860
   240  O          0.84043150       0.90104000       0.73010140
   241  H          0.30820000       0.60050000       0.24830000
   242  H          0.69180000       0.60050000       0.25170000
   243  H          0.80820000       0.10050000       0.24830000
   244  H          0.19180000       0.10050000       0.25170000
   245  H          0.69180000       0.39950000       0.75170000
   246  H          0.30820000       0.39950000       0.74830000
   247  H          0.19180000       0.89950000       0.75170000
   248  H          0.80820000       0.89950000       0.74830000
   249  C          0.46532000       0.59698000       0.23572000
   250  C          0.53468000       0.59698000       0.26428000
   251  C          0.96532000       0.09698000       0.23572000
   252  C          0.03468000       0.09698000       0.26428000
   253  C          0.53468000       0.40302000       0.76428000
   254  C          0.46532000       0.40302000       0.73572000
   255  C          0.03468000       0.90302000       0.76428000
   256  C          0.96532000       0.90302000       0.73572000
   257  H          0.45300000       0.59780000       0.19530000
   258  H          0.54700000       0.59780000       0.30470000
   259  H          0.95300000       0.09780000       0.19530000
   260  H          0.04700000       0.09780000       0.30470000
   261  H          0.54700000       0.40220000       0.80470000
   262  H          0.45300000       0.40220000       0.69530000
   263  H          0.04700000       0.90220000       0.80470000
   264  H          0.95300000       0.90220000       0.69530000
   265  C          0.40592000       0.59557000       0.26612000
   266  C          0.59408000       0.59557000       0.23388000
   267  C          0.90592000       0.09557000       0.26612000
   268  C          0.09408000       0.09557000       0.23388000
   269  C          0.59408000       0.40443000       0.73388000
   270  C          0.40592000       0.40443000       0.76612000
   271  C          0.09408000       0.90443000       0.73388000
   272  C          0.90592000       0.90443000       0.76612000
