data_EVALEU
_symmetry_space_group_name_H-M    'P1'
_symmetry_Int_Tables_number       1
loop_
_symmetry_equiv_pos_site_id
_symmetry_equiv_pos_as_xyz
1 x,y,z
_cell_length_a                   13.4683
_cell_length_b                   6.81741
_cell_length_c                   14.3452
_cell_angle_alpha                90.0
_cell_angle_beta                 110.1509
_cell_angle_gamma                90.0
loop_
_atom_site_label
_atom_site_type_symbol
_atom_site_fract_x
_atom_site_fract_y
_atom_site_fract_z
     1  Br         0.48341400       0.24247700       0.23212300
     2  Br         0.51658600       0.74247700       0.76787700
     3  N          0.43723000       0.72647000       0.13883000
     4  N          0.56277000       0.22647000       0.86117000
     5  H          0.42050000       0.83640000       0.10800000
     6  H          0.57950000       0.33640000       0.89200000
     7  O          0.34973000       0.37364000       0.94098000
     8  O          0.65027000       0.87364000       0.05902000
     9  O          0.18233000       0.57565000       0.97897000
    10  O          0.81767000       0.07565000       0.02103000
    11  H          0.15490000       0.65520000       0.00550000
    12  H          0.84510000       0.15520000      -0.00550000
    13  O          0.38693000       0.07845000       0.00853000
    14  O          0.61307000       0.57845000      -0.00853000
    15  C          0.65596000       0.75641500       0.56114000
    16  C          0.34404000       0.25641500       0.43886000
    17  H          0.73010000       0.77290000       0.57330000
    18  H          0.26990000       0.27290000       0.42670000
    19  H          0.64470000       0.63740000       0.59180000
    20  H          0.35530000       0.13740000       0.40820000
    21  H          0.63020000       0.86580000       0.58830000
    22  H          0.36980000       0.36580000       0.41170000
    23  C          0.59674000       0.74571100       0.44963000
    24  C          0.40326000       0.24571100       0.55037000
    25  C          0.48915000       0.72111300       0.41014000
    26  C          0.51085000       0.22111300       0.58986000
    27  H          0.45030000       0.71140000       0.45240000
    28  H          0.54970000       0.21140000       0.54760000
    29  C          0.43694000       0.71039000       0.30784000
    30  C          0.56306000       0.21039000       0.69216000
    31  H          0.36420000       0.68880000       0.28290000
    32  H          0.63580000       0.18880000       0.71710000
    33  C          0.49083000       0.73101000       0.24463000
    34  C          0.50917000       0.23101000       0.75537000
    35  C          0.41223000       0.56276000       0.08623000
    36  C          0.58777000       0.06276000       0.91377000
    37  C          0.35873000       0.57506000       0.97477000
    38  C          0.64127000       0.07506000       0.02523000
    39  H          0.40510000       0.64600000       0.94670000
    40  H          0.59490000       0.14600000       0.05330000
    41  C          0.25073000       0.67326000       0.94007000
    42  C          0.74927000       0.17326000       0.05993000
    43  H          0.25920000       0.80860000       0.96460000
    44  H          0.74080000       0.30860000       0.03540000
    45  C          0.20954000       0.67776000       0.82687000
    46  C          0.79046000       0.17776000       0.17313000
    47  C          0.24444000       0.82207000       0.77946000
    48  C          0.75556000       0.32207000       0.22054000
    49  H          0.28560000       0.92370000       0.81620000
    50  H          0.71440000       0.42370000       0.18380000
    51  C          0.21875000       0.81828000       0.67666000
    52  C          0.78125000       0.31828000       0.32334000
    53  H          0.24380000       0.91730000       0.64620000
    54  H          0.75620000       0.41730000       0.35380000
    55  C          0.15644000       0.67007000       0.61847000
    56  C          0.84356000       0.17007000       0.38153000
    57  C          0.13364000       0.65898000       0.51036000
    58  C          0.86636000       0.15898000       0.48964000
    59  C          0.05415000       0.55241000       0.44756000
    60  C          0.94585000       0.05241000       0.55244000
    61  H          0.01050000       0.48200000       0.47370000
    62  H         -0.01050000      -0.01800000       0.52630000
    63  C          0.03396000       0.54281200       0.34545000
    64  C          0.96604000       0.04281200       0.65455000
    65  H          0.98040000       0.46210000       0.30560000
    66  H          0.01960000       0.96210000       0.69440000
    67  C          0.09326000       0.65249000       0.30466000
    68  C          0.90674000       0.15249000       0.69534000
    69  H          0.07810000       0.65310000       0.23640000
    70  H          0.92190000       0.15310000       0.76360000
    71  C          0.42463000       0.36956000       0.10973000
    72  C          0.57537000       0.86956000       0.89027000
    73  C          0.38753000       0.25378000       0.02113000
    74  C          0.61247000       0.75378000       0.97887000
    75  C          0.14404000       0.53257000       0.77126000
    76  C          0.85596000       0.03257000       0.22874000
    77  H          0.11820000       0.43630000       0.80280000
    78  H          0.88180000       0.93630000       0.19720000
    79  C          0.11694000       0.52968000       0.66996000
    80  C          0.88306000       0.02968000       0.33004000
    81  H          0.07120000       0.43250000       0.63390000
    82  H          0.92880000       0.93250000       0.36610000
    83  C          0.19525000       0.76791100       0.46486000
    84  C          0.80475000       0.26791100       0.53514000
    85  H          0.25060000       0.84540000       0.50430000
    86  H          0.74940000       0.34540000       0.49570000
    87  C          0.17465000       0.76081300       0.36546000
    88  C          0.82535000       0.26081300       0.63454000
    89  H          0.21710000       0.83150000       0.33840000
    90  H          0.78290000       0.33150000       0.66160000
    91  C          0.59894000       0.76568000       0.28193000
    92  C          0.40106000       0.26568000       0.71807000
    93  H          0.63670000       0.78220000       0.23910000
    94  H          0.36330000       0.28220000       0.76090000
    95  C          0.64974000       0.77508000       0.38354000
    96  C          0.35026000       0.27508000       0.61646000
    97  H          0.72180000       0.80190000       0.40820000
    98  H          0.27820000       0.30190000       0.59180000
    99  S          0.17862000       0.04714000       0.09692000
   100  S          0.82138000       0.54714000       0.90308000
   101  C          0.13231300       0.19321600       0.16357000
   102  C          0.86768700       0.69321600       0.83643000
   103  H          0.17050000       0.17170000       0.23270000
   104  H          0.82950000       0.67170000       0.76730000
   105  H          0.05870000       0.16620000       0.14950000
   106  H          0.94130000       0.66620000       0.85050000
   107  H          0.14080000       0.32720000       0.14700000
   108  H          0.85920000       0.82720000       0.85300000
   109  C          0.09837000       0.11181200       0.97754000
   110  C          0.90163000       0.61181200       0.02246000
   111  H          0.11820000       0.03700000       0.93010000
   112  H          0.88180000       0.53700000       0.06990000
   113  H          0.10650000       0.24910000       0.96730000
   114  H          0.89350000       0.74910000       0.03270000
   115  H          0.02580000       0.08490000       0.96950000
   116  H          0.97420000       0.58490000       0.03050000
   117  O          0.15606000       0.84533000       0.11084000
   118  O          0.84394000       0.34533000       0.88916000
