data_EVASUR
_symmetry_space_group_name_H-M    'P1'
_symmetry_Int_Tables_number       1
loop_
_symmetry_equiv_pos_site_id
_symmetry_equiv_pos_as_xyz
1 x,y,z
_cell_length_a                   8.8492
_cell_length_b                   9.5872
_cell_length_c                   13.7314
_cell_angle_alpha                85.8049
_cell_angle_beta                 86.7999
_cell_angle_gamma                79.7179
loop_
_atom_site_label
_atom_site_type_symbol
_atom_site_fract_x
_atom_site_fract_y
_atom_site_fract_z
     1  O          0.34852000       0.14057160       0.66480100
     2  O          0.65148000       0.85942840       0.33519900
     3  O          0.43330180       0.36137150       0.90487100
     4  O          0.56669820       0.63862850       0.09512900
     5  O          0.62132000       0.69489160       0.67992100
     6  O          0.37868000       0.30510840       0.32007900
     7  N          0.16053000       0.79368000       0.44088150
     8  N          0.83947000       0.20632000       0.55911850
     9  N          0.34122000       0.15608170       0.49853120
    10  N          0.65878000       0.84391830       0.50146880
    11  N          0.43312000       0.32792170       0.57309120
    12  N          0.56688000       0.67207830       0.42690880
    13  N          0.52352000       0.51530170       0.62735120
    14  N          0.47648000       0.48469830       0.37264880
    15  N          0.44082000       0.34583180       0.74186110
    16  N          0.55918000       0.65416820       0.25813890
    17  C          0.27982000       0.03402000       0.48443140
    18  C          0.72018000       0.96598000       0.51556860
    19  C          0.24384000       0.93677000       0.55768170
    20  C          0.75616000       0.06323000       0.44231830
    21  H          0.25830000       0.94890000       0.62290000
    22  H          0.74170000       0.05110000       0.37710000
    23  C          0.18584000       0.82097000       0.53112190
    24  C          0.81416000       0.17903000       0.46887810
    25  H          0.16230000       0.75650000       0.58120000
    26  H          0.83770000       0.24350000       0.41880000
    27  C          0.19623000       0.88868000       0.37153170
    28  C          0.80377000       0.11132000       0.62846830
    29  H          0.18060000       0.87340000       0.30700000
    30  H          0.81940000       0.12660000       0.69300000
    31  C          0.25473000       0.00832000       0.38897150
    32  C          0.74527000      -0.00832000       0.61102850
    33  H          0.27700000       0.07090000       0.33740000
    34  H          0.72300000       0.92910000       0.66260000
    35  C          0.37162000       0.20122000       0.58514140
    36  C          0.62838000       0.79878000       0.41485860
    37  C          0.46612000       0.39622000       0.64832130
    38  C          0.53388000       0.60378000       0.35167870
    39  C          0.56392000       0.58912000       0.70097130
    40  C          0.43608000       0.41088000       0.29902870
    41  C          0.53592000       0.54482000       0.80857130
    42  C          0.46408000       0.45518000       0.19142870
    43  C          0.46632000       0.41132000       0.82446130
    44  C          0.53368000       0.58868000       0.17553870
    45  C          0.42392000       0.66762000       0.85471140
    46  C          0.57608000       0.33238000       0.14528860
    47  H          0.41670000       0.64650000       0.92480000
    48  H          0.58330000       0.35350000       0.07520000
    49  H          0.46720000       0.75380000       0.84340000
    50  H          0.53280000       0.24620000       0.15660000
    51  C          0.26283000       0.69562000       0.81650160
    52  C          0.73717000       0.30438000       0.18349840
    53  H          0.21530000       0.61270000       0.83260000
    54  H          0.78470000       0.38730000       0.16740000
    55  H          0.26940000       0.71040000       0.74590000
    56  H          0.73060000       0.28960000       0.25410000
    57  C          0.16183000       0.82423000       0.85882000
    58  C          0.83817000       0.17577000       0.14118000
    59  H          0.16520000       0.81450000       0.92950000
    60  H          0.83480000       0.18550000       0.07050000
    61  H          0.20300000       0.90880000       0.83630000
    62  H          0.79700000       0.09120000       0.16370000
    63  C         -0.00363000       0.84293000       0.83043000
    64  C          0.00363000       0.15707000       0.16957000
    65  H         -0.00800000       0.85390000       0.76050000
    66  H          0.00800000       0.14610000       0.23950000
    67  H          0.93830000       0.92580000       0.85850000
    68  H          0.06170000       0.07420000       0.14150000
    69  H          0.95390000       0.76090000       0.85430000
    70  H          0.04610000       0.23910000       0.14570000
    71  C          0.68972000       0.52032000       0.86110140
    72  C          0.31028000       0.47968000       0.13889860
    73  H          0.74010000       0.60120000       0.84420000
    74  H          0.25990000       0.39880000       0.15580000
    75  H          0.66680000       0.51770000       0.93110000
    76  H          0.33320000       0.48230000       0.06890000
    77  C          0.80202000       0.38572000       0.83788150
    78  C          0.19798000       0.61428000       0.16211850
    79  H          0.82250000       0.38490000       0.76780000
    80  H          0.17750000       0.61510000       0.23220000
    81  H          0.75570000       0.30340000       0.85880000
    82  H          0.24430000       0.69660000       0.14120000
    83  C          0.95303000       0.37533000       0.88846170
    84  C          0.04697000       0.62467000       0.11153830
    85  H          0.00200000       0.45460000       0.86410000
    86  H         -0.00200000       0.54540000       0.13590000
    87  H          0.93110000       0.38340000       0.95800000
    88  H          0.06890000       0.61660000       0.04200000
    89  C          0.06403000       0.23783000       0.87292000
    90  C          0.93597000       0.76217000       0.12708000
    91  H          0.08440000       0.22770000       0.80420000
    92  H          0.91560000       0.77230000       0.19580000
    93  H          0.01950000       0.15910000       0.90120000
    94  H          0.98050000       0.84090000       0.09880000
    95  H          0.15840000       0.23970000       0.90360000
    96  H          0.84160000       0.76030000       0.09640000
    97  H          0.35930000       0.20930000       0.44611900
    98  H          0.64070000       0.79070000       0.55388100
    99  H          0.40430000       0.27030000       0.74641900
   100  H          0.59570000       0.72970000       0.25358100
   101  H          0.44340000       0.37240000       0.51530000
   102  H          0.55660000       0.62760000       0.48470000
   103  Cl         0.57892900       0.01475600       0.84960400
   104  Cl         0.42107100       0.98524400       0.15039600
   105  C          0.57593000      -0.00914000       0.97892190
   106  C          0.42407000       0.00914000       0.02107810
   107  H          0.62940000       0.89630000      -0.00220000
   108  H          0.37060000       0.10370000       0.00220000
   109  H          0.63040000       0.05870000       0.00440000
   110  H          0.36960000       0.94130000      -0.00440000
   111  Cl         0.06643800       0.49761700       0.64828400
   112  Cl         0.93356200       0.50238300       0.35171600
   113  C          0.95197000       0.53043000       0.54032000
   114  C          0.04803000       0.46957000       0.45968000
   115  H          0.86120000       0.48650000       0.55050000
   116  H          0.13880000       0.51350000       0.44950000
   117  H          0.91940000       0.63170000       0.52650000
   118  H          0.08060000       0.36830000       0.47350000
