data_EVATED
_symmetry_space_group_name_H-M    'P1'
_symmetry_Int_Tables_number       1
loop_
_symmetry_equiv_pos_site_id
_symmetry_equiv_pos_as_xyz
1 x,y,z
_cell_length_a                   8.15442
_cell_length_b                   8.90592
_cell_length_c                   14.88994
_cell_angle_alpha                81.51138
_cell_angle_beta                 81.59218
_cell_angle_gamma                70.08217
loop_
_atom_site_label
_atom_site_type_symbol
_atom_site_fract_x
_atom_site_fract_y
_atom_site_fract_z
     1  O          0.69568110       0.25194100       0.73158600
     2  O          0.30431890       0.74805900       0.26841400
     3  N          0.56351130       0.45564120       0.88827700
     4  N          0.43648870       0.54435880       0.11172300
     5  N          0.71066140       0.60497130       0.91962700
     6  N          0.28933860       0.39502870       0.08037300
     7  Cl         0.12142400       0.45136300       0.80805200
     8  Cl         0.87857600       0.54863700       0.19194800
     9  Cl         0.09123400       0.89463600       0.72467200
    10  Cl         0.90876600       0.10536400       0.27532800
    11  Cl         0.71971400       0.39522400       0.43210200
    12  Cl         0.28028600       0.60477600       0.56789800
    13  Cl         0.82654500       0.92374400       0.50877200
    14  Cl         0.17345500       0.07625600       0.49122800
    15  C          0.51761150       0.31190140       0.76948800
    16  C          0.48238850       0.68809860       0.23051200
    17  C          0.52213160       0.31528140       0.87161800
    18  C          0.47786840       0.68471860       0.12838200
    19  C          0.45406160       0.61296150       0.87898800
    20  C          0.54593840       0.38703850       0.12101200
    21  C          0.54617170       0.70364150       0.89869800
    22  C          0.45382830       0.29635850       0.10130200
    23  C          0.71581160       0.45735150       0.91253800
    24  C          0.28418840       0.54264850       0.08746200
    25  C          0.41152150       0.20824140       0.75493800
    26  C          0.58847850       0.79175860       0.24506200
    27  C          0.49142160       0.05620140       0.72510800
    28  C          0.50857840       0.94379860       0.27489200
    29  C          0.39377170       0.96048850       0.71365800
    30  C          0.60622830       0.03951150       0.28634200
    31  C          0.21347160       0.01675150       0.73423800
    32  C          0.78652840       0.98324850       0.26576200
    33  C          0.12780160       0.16768150       0.76331800
    34  C          0.87219840       0.83231850       0.23668200
    35  C          0.22885150       0.26139140       0.77243800
    36  C          0.77114850       0.73860860       0.22756200
    37  C          0.74632150       0.44423140       0.60421800
    38  C          0.25367850       0.55576860       0.39578200
    39  C          0.77513160       0.53465150       0.66551800
    40  C          0.22486840       0.46534850       0.33448200
    41  C          0.80213160       0.68113150       0.63698900
    42  C          0.19786840       0.31886850       0.36301100
    43  C          0.79730160       0.73924150       0.54563900
    44  C          0.20269840       0.26075850       0.45436100
    45  C          0.77075160       0.65275150       0.48188900
    46  C          0.22924840       0.34724850       0.51811100
    47  C          0.74727150       0.50615150       0.51243800
    48  C          0.25272850       0.49384850       0.48756200
    49  C          0.72041160       0.28340150       0.63466800
    50  C          0.27958840       0.71659850       0.36533200
    51  H          0.46061800       0.42291700       0.74099000
    52  H          0.53938200       0.57708300       0.25901000
    53  H          0.33920000       0.63931900       0.86291100
    54  H          0.66080000       0.36068100       0.13708900
    55  H          0.50920000       0.81501900       0.89981000
    56  H          0.49080000       0.18498100       0.10019000
    57  H          0.81220000       0.36211900       0.92431000
    58  H          0.18780000       0.63788100       0.07569000
    59  H          0.61420000       0.01681900       0.71251100
    60  H          0.38580000       0.98318100       0.28748900
    61  H          0.44720000       0.85880000       0.69191100
    62  H          0.55280000       0.14120000       0.30808900
    63  H          0.00420000       0.20541900       0.77641100
    64  H         -0.00420000       0.79458100       0.22358900
    65  H          0.77881900       0.49521800       0.72641100
    66  H          0.22118100       0.50478200       0.27358900
    67  H          0.82420000       0.73691900       0.68031100
    68  H          0.17580000       0.26308100       0.31968900
    69  H          0.76620000       0.69120000       0.42071200
    70  H          0.23380000       0.30880000       0.57928800
    71  H          0.61220000       0.21761800       0.89561000
    72  H          0.38780000       0.78238200       0.10439000
    73  H          0.41031900       0.32071700       0.90471000
    74  H          0.58968100       0.67928300       0.09529000
    75  H          0.62420000       0.27741800       0.60721000
    76  H          0.37580000       0.72258200       0.39279000
    77  H          0.82620000       0.19541900       0.61461100
    78  H          0.17380000       0.80458100       0.38538900
    79  O          0.95369120       0.71412110       0.94712700
    80  O          0.04630880       0.28587890       0.05287300
    81  O          0.72854130       0.93405130       0.97964100
    82  O          0.27145870       0.06594870       0.02035900
    83  C          0.88414170       0.86230150       0.96839900
    84  C          0.11585830       0.13769850       0.03160100
    85  C          0.02004160       0.93473150       0.97884900
    86  C          0.97995840       0.06526850       0.02115100
    87  H          0.86830000       0.67230000       0.93971600
    88  H          0.13170000       0.32770000       0.06028400
    89  H          0.13520000       0.88620000       0.95421100
    90  H          0.86480000       0.11380000       0.04578900
