data_EVATAZ
_symmetry_space_group_name_H-M    'P1'
_symmetry_Int_Tables_number       1
loop_
_symmetry_equiv_pos_site_id
_symmetry_equiv_pos_as_xyz
1 x,y,z
_cell_length_a                   8.08303
_cell_length_b                   9.09563
_cell_length_c                   15.00546
_cell_angle_alpha                82.803514
_cell_angle_beta                 80.092813
_cell_angle_gamma                71.263612
loop_
_atom_site_label
_atom_site_type_symbol
_atom_site_fract_x
_atom_site_fract_y
_atom_site_fract_z
     1  O          0.31595130       0.73463120       0.27039700
     2  O          0.68404870       0.26536880       0.72960300
     3  N          0.45783160       0.53095140       0.11404800
     4  N          0.54216840       0.46904860       0.88595200
     5  N          0.30799160       0.38336140       0.08338800
     6  N          0.69200840       0.61663860       0.91661200
     7  Cl         0.89606400       0.54348400       0.19996300
     8  Cl         0.10393600       0.45651600       0.80003700
     9  Cl         0.92009500       0.09653500       0.27924300
    10  Cl         0.07990500       0.90346500       0.72075700
    11  Cl         0.27508500       0.60591500       0.56765200
    12  Cl         0.72491500       0.39408500       0.43234800
    13  Cl         0.17742600       0.08144500       0.48891300
    14  Cl         0.82257400       0.91855500       0.51108700
    15  C          0.49689180       0.67777160       0.23246900
    16  C          0.50310820       0.32222840       0.76753100
    17  C          0.50036190       0.66850160       0.13096900
    18  C          0.49963810       0.33149840       0.86903100
    19  C          0.56232000       0.37814170       0.12554100
    20  C          0.43768000       0.62185830       0.87445900
    21  C          0.46912000       0.28863170       0.10615100
    22  C          0.53088000       0.71136830       0.89384900
    23  C          0.30707190       0.52684170       0.08880900
    24  C          0.69292810       0.47315830       0.91119100
    25  C          0.60158180       0.78267160       0.24681900
    26  C          0.39841820       0.21732840       0.75318100
    27  C          0.51915190       0.93349170       0.27326100
    28  C          0.48084810       0.06650830       0.72673900
    29  C          0.61552000       0.03032170       0.28481100
    30  C          0.38448000       0.96967830       0.71518900
    31  C          0.79802000       0.97479170       0.26839100
    32  C          0.20198000       0.02520830       0.73160900
    33  C          0.88650190       0.82515170       0.24274100
    34  C          0.11349810       0.17484830       0.75725900
    35  C          0.78598190       0.73115160       0.23253900
    36  C          0.21401810       0.26884840       0.76746100
    37  C          0.26019180       0.54986170       0.39650100
    38  C          0.73980820       0.45013830       0.60349900
    39  C          0.23752190       0.45726170       0.33496100
    40  C          0.76247810       0.54273830       0.66503900
    41  C          0.21063190       0.31406170       0.36256100
    42  C          0.78936810       0.68593830       0.63743900
    43  C          0.20824190       0.26120170       0.45329100
    44  C          0.79175810       0.73879830       0.54670900
    45  C          0.22892000       0.34994180       0.51690100
    46  C          0.77108000       0.65005820       0.48309900
    47  C          0.25356190       0.49312170       0.48733100
    48  C          0.74643810       0.50687830       0.51266900
    49  C          0.28592000       0.70716180       0.36687100
    50  C          0.71408000       0.29283820       0.63312900
    51  H          0.54820000       0.57391900       0.25981100
    52  H          0.45180000       0.42608100       0.74018900
    53  H          0.67430000       0.35520000       0.14261300
    54  H          0.32570000       0.64480000       0.85738700
    55  H          0.50330000       0.17820000       0.10641400
    56  H          0.49670000       0.82180000       0.89358600
    57  H          0.21230000       0.62020000       0.07571200
    58  H          0.78770000       0.37980000       0.92428800
    59  H          0.39230000       0.97220000       0.28021400
    60  H          0.60770000       0.02780000       0.71978600
    61  H          0.55620000       0.13320000       0.30411200
    62  H          0.44380000       0.86680000       0.69588800
    63  H          0.01130000       0.78820000       0.23171300
    64  H          0.98870000       0.21180000       0.76828700
    65  H          0.23220000       0.49320000       0.27581200
    66  H          0.76780000       0.50680000       0.72418800
    67  H          0.19820000       0.25320000       0.31821300
    68  H          0.80180000       0.74680000       0.68178700
    69  H          0.23030000       0.31820000       0.57661400
    70  H          0.76970000       0.68180000       0.42338600
    71  H          0.41320000       0.76320000       0.10851100
    72  H          0.58680000       0.23680000       0.89148900
    73  H          0.61620000       0.66161900       0.09851100
    74  H          0.38380000       0.33838100       0.90148900
    75  H          0.38030000       0.71720000       0.39351300
    76  H          0.61970000       0.28280000       0.60648700
    77  H          0.18330000       0.79120000       0.38751300
    78  H          0.81670000       0.20880000       0.61248700
    79  O          0.05939160       0.29145130       0.03849900
    80  O          0.94060840       0.70854870       0.96150100
    81  O          0.24894170       0.05222150       0.05526110
    82  O          0.75105830       0.94777850       0.94473890
    83  C          0.11092000       0.13911170       0.03504110
    84  C          0.88908000       0.86088830       0.96495890
    85  C          0.97478000       0.08617180       0.00178120
    86  C          0.02522000       0.91382820      -0.00178120
    87  H          0.13940000       0.31730000       0.05481700
    88  H          0.86060000       0.68270000       0.94518300
    89  H          0.95070000       0.14330000       0.93758400
    90  H          0.04930000       0.85670000       0.06241600
    91  H          0.86670000       0.12230000       0.03961600
    92  H          0.13330000       0.87770000       0.96038400
