data_EVIGAR
_symmetry_space_group_name_H-M    'P1'
_symmetry_Int_Tables_number       1
loop_
_symmetry_equiv_pos_site_id
_symmetry_equiv_pos_as_xyz
1 x,y,z
_cell_length_a                   7.0024
_cell_length_b                   9.4388
_cell_length_c                   12.6586
_cell_angle_alpha                79.565
_cell_angle_beta                 83.854
_cell_angle_gamma                82.986
loop_
_atom_site_label
_atom_site_type_symbol
_atom_site_fract_x
_atom_site_fract_y
_atom_site_fract_z
     1  N          0.64705000       0.05554000       0.72233000
     2  N          0.35295000       0.94446000       0.27767000
     3  N          0.56966000       0.89976000       0.87913000
     4  N          0.43034000       0.10024000       0.12087000
     5  N          0.55055000       0.14344000       0.88413000
     6  N          0.44945000       0.85656000       0.11587000
     7  C          0.58856000       0.03344000       0.82893000
     8  C          0.41144000       0.96656000       0.17107000
     9  C          0.57586000       0.27554000       0.83024000
    10  C          0.42414000       0.72446000       0.16976000
    11  C          0.64146000       0.30135000       0.72174000
    12  C          0.35854000       0.69865000       0.27826000
    13  C          0.67476000       0.18875000       0.66653000
    14  C          0.32524000       0.81125000       0.33347000
    15  C          0.73518000       0.19796000       0.54904000
    16  C          0.26482000       0.80204000       0.45096000
    17  C          0.52768000       0.39675000       0.89424000
    18  C          0.47232000       0.60325000       0.10576000
    19  H          0.66230000       0.39450000       0.68720000
    20  H          0.33770000       0.60550000       0.31280000
    21  H          0.66730000       0.98260000       0.68900000
    22  H          0.33270000       0.01740000       0.31100000
    23  H          0.53320000       0.88390000       0.94690000
    24  H          0.46680000       0.11610000       0.05310000
    25  H          0.59380000       0.82880000       0.84410000
    26  H          0.40620000       0.17120000       0.15590000
    27  H          0.79330000       0.10490000       0.53510000
    28  H          0.20670000       0.89510000       0.46490000
    29  H          0.82670000       0.26780000       0.52760000
    30  H          0.17330000       0.73220000       0.47240000
    31  H          0.62400000       0.22700000       0.50880000
    32  H          0.37600000       0.77300000       0.49120000
    33  H          0.41780000       0.37700000       0.94470000
    34  H          0.58220000       0.62300000       0.05530000
    35  H          0.49820000       0.48600000       0.84620000
    36  H          0.50180000       0.51400000       0.15380000
    37  H          0.63610000       0.40430000       0.93240000
    38  H          0.36390000       0.59570000       0.06760000
    39  N          0.08835000       0.32434000       0.81573000
    40  N          0.91165000       0.67566000       0.18427000
    41  N         -0.00406000       0.20644000       0.98533000
    42  N          0.00406000       0.79356000       0.01467000
    43  N          0.06985000       0.06784000       0.85293000
    44  N          0.93015000       0.93216000       0.14707000
    45  C          0.05406000       0.19914000       0.88243000
    46  C          0.94594000       0.80086000       0.11757000
    47  C          0.13066000       0.06105000       0.75083000
    48  C          0.86934000       0.93895000       0.24917000
    49  C          0.17216000       0.18315000       0.67774000
    50  C          0.82784000       0.81685000       0.32226000
    51  C          0.14676000       0.31425000       0.71294000
    52  C          0.85324000       0.68575000       0.28706000
    53  C          0.17968000       0.45296000       0.63804000
    54  C          0.82032000       0.54704000       0.36196000
    55  C          0.15298000       0.91425000       0.71834000
    56  C          0.84702000       0.08575000       0.28166000
    57  H          0.97030000       0.12920000       0.02960000
    58  H          0.02970000       0.87080000       0.97040000
    59  H          0.98410000       0.28830000       0.00740000
    60  H          0.01590000       0.71170000      -0.00740000
    61  H          0.21590000       0.17690000       0.60650000
    62  H          0.78410000       0.82310000       0.39350000
    63  H          0.05740000       0.50510000       0.62060000
    64  H          0.94260000       0.49490000       0.37940000
    65  H          0.25300000       0.43170000       0.57320000
    66  H          0.74700000       0.56830000       0.42680000
    67  H          0.24950000       0.51060000       0.67230000
    68  H          0.75050000       0.48940000       0.32770000
    69  H          0.14780000       0.84110000       0.78170000
    70  H          0.85220000       0.15890000       0.21830000
    71  H          0.27480000       0.90020000       0.67700000
    72  H          0.72520000       0.09980000       0.32300000
    73  H          0.05020000       0.90780000       0.67540000
    74  H          0.94980000       0.09220000       0.32460000
    75  O          0.06477000       0.40274000       0.12834000
    76  O          0.93523000       0.59726000       0.87166000
    77  H          0.13290000       0.37250000       0.17610000
    78  H          0.86710000       0.62750000       0.82390000
    79  H          0.00840000       0.47740000       0.14210000
    80  H         -0.00840000       0.52260000       0.85790000
    81  Br         0.30561800       0.25741600       0.35557400
    82  Br         0.69438200       0.74258400       0.64442600
