data_EVIJOJ
_symmetry_space_group_name_H-M    'P1'
_symmetry_Int_Tables_number       1
loop_
_symmetry_equiv_pos_site_id
_symmetry_equiv_pos_as_xyz
1 x,y,z
_cell_length_a                   7.947216
_cell_length_b                   9.8842
_cell_length_c                   10.6282
_cell_angle_alpha                84.373
_cell_angle_beta                 70.123
_cell_angle_gamma                72.723
loop_
_atom_site_label
_atom_site_type_symbol
_atom_site_fract_x
_atom_site_fract_y
_atom_site_fract_z
     1  O          0.48157000       0.70502000       0.44043000
     2  O          0.51843000       0.29498000       0.55957000
     3  H          0.41010000       0.79190000       0.44470000
     4  H          0.58990000       0.20810000       0.55530000
     5  O          0.65017000       0.81872000       0.49023000
     6  O          0.34983000       0.18128000       0.50977000
     7  C          0.62426000       0.71023000       0.47183000
     8  C          0.37574000       0.28977000       0.52817000
     9  C          0.75246000       0.56693000       0.48253000
    10  C          0.24754000       0.43307000       0.51747000
    11  H          0.77600000       0.51030000       0.40550000
    12  H          0.22400000       0.48970000       0.59450000
    13  H          0.69140000       0.52000000       0.56190000
    14  H          0.30860000       0.48000000       0.43810000
    15  C          0.93807000       0.57372000       0.48982000
    16  C          0.06193000       0.42628000       0.51018000
    17  H          0.91380000       0.63510000       0.56470000
    18  H          0.08620000       0.36490000       0.43530000
    19  C          0.04254000       0.63562000       0.36142000
    20  C          0.95746000       0.36438000       0.63858000
    21  O          0.06053000       0.59522000       0.25216190
    22  O          0.93947000       0.40478000       0.74783810
    23  O          0.11213000       0.73303190       0.37990180
    24  O          0.88787000       0.26696810       0.62009820
    25  H          0.16390000       0.77060000       0.30540000
    26  H          0.83610000       0.22940000       0.69460000
    27  N          0.09633000       0.05282000       0.23232000
    28  N          0.90367000       0.94718000       0.76768000
    29  C          0.96465000       0.17443000       0.27173000
    30  C          0.03535000       0.82557000       0.72827000
    31  H          0.91100000       0.19340000       0.36290000
    32  H          0.08900000       0.80660000       0.63710000
    33  C          0.90305000       0.27463000       0.18444000
    34  C          0.09695000       0.72537000       0.81556000
    35  H          0.80850000       0.35710000       0.21700000
    36  H          0.19150000       0.64290000       0.78300000
    37  C          0.98245000       0.25053000       0.05053000
    38  C          0.01755000       0.74947000       0.94947000
    39  H          0.94350000       0.31680000      -0.00960000
    40  H          0.05650000       0.68320000       0.00960000
    41  C          0.12304000       0.12553000       0.00403000
    42  C          0.87696000       0.87447000      -0.00403000
    43  C          0.21725000       0.09594000       0.86437000
    44  C          0.78275000       0.90406000       0.13563000
    45  H          0.18100000       0.15990000       0.80180000
    46  H          0.81900000       0.84010000       0.19820000
    47  C          0.35616000       0.97814000       0.82257000
    48  C          0.64384000       0.02186000       0.17743000
    49  H          0.41850000       0.96330000       0.73130000
    50  H          0.58150000       0.03670000       0.26870000
    51  C          0.41064000       0.87443000       0.91467000
    52  C          0.58936000       0.12557000       0.08533000
    53  C          0.55525000       0.74924000       0.87476000
    54  C          0.44475000       0.25076000       0.12524000
    55  H          0.62360000       0.73280000       0.78460000
    56  H          0.37640000       0.26720000       0.21540000
    57  C          0.59615000       0.65154000       0.96716000
    58  C          0.40385000       0.34846000       0.03284000
    59  H          0.69350000       0.56900000       0.94140000
    60  H          0.30650000       0.43100000       0.05860000
    61  C          0.48885000       0.67773000       0.10144000
    62  C          0.51115000       0.32227000       0.89856000
    63  H          0.51490000       0.60930000       0.16390000
    64  H          0.48510000       0.39070000       0.83610000
    65  C          0.31534000       0.89523000       0.05373000
    66  C          0.68466000       0.10477000       0.94627000
    67  C          0.17414000       0.02673000       0.09852000
    68  C          0.82586000       0.97327000       0.90148000
    69  N          0.35193000       0.79462000       0.14442000
    70  N          0.64807000       0.20538000       0.85558000
    71  O          0.25703000       0.95232000       0.43902000
    72  O          0.74297000       0.04768000       0.56098000
    73  H          0.29320000       0.02750000       0.44040000
    74  H          0.70680000       0.97250000       0.55960000
    75  H          0.17360000       0.97540000       0.40110000
    76  H          0.82640000       0.02460000       0.59890000
