data_EVIJAU
_symmetry_space_group_name_H-M    'P1'
_symmetry_Int_Tables_number       1
loop_
_symmetry_equiv_pos_site_id
_symmetry_equiv_pos_as_xyz
1 x,y,z
_cell_length_a                   13.8725
_cell_length_b                   9.5786
_cell_length_c                   9.17801
_cell_angle_alpha                90.0
_cell_angle_beta                 125.35014
_cell_angle_gamma                90.0
loop_
_atom_site_label
_atom_site_type_symbol
_atom_site_fract_x
_atom_site_fract_y
_atom_site_fract_z
     1  O          0.71283000       0.61977000       0.35904000
     2  O          0.28717000       0.61977000       0.64096000
     3  O          0.21283000       0.11977000       0.35904000
     4  O          0.78717000       0.11977000       0.64096000
     5  O          0.53762000       0.72726000       0.20544000
     6  O          0.46238000       0.72726000       0.79456000
     7  O          0.03762000       0.22726000       0.20544000
     8  O          0.96238000       0.22726000       0.79456000
     9  H          0.50740000       0.64140000       0.17460000
    10  H          0.49260000       0.64140000       0.82540000
    11  H          0.00740000       0.14140000       0.17460000
    12  H         -0.00740000       0.14140000       0.82540000
    13  C          0.65453000       0.72466000       0.31675000
    14  C          0.34547000       0.72466000       0.68325000
    15  C          0.15453000       0.22466000       0.31675000
    16  C          0.84547000       0.22466000       0.68325000
    17  C          0.70643000       0.86976000       0.38165000
    18  C          0.29357000       0.86976000       0.61835000
    19  C          0.20643000       0.36976000       0.38165000
    20  C          0.79357000       0.36976000       0.61835000
    21  H          0.67320000       0.91090000       0.44150000
    22  H          0.32680000       0.91090000       0.55850000
    23  H          0.17320000       0.41090000       0.44150000
    24  H          0.82680000       0.41090000       0.55850000
    25  N          0.83673000       0.85346000       0.51554000
    26  N          0.16327000       0.85346000       0.48446000
    27  N          0.33673000       0.35346000       0.51554000
    28  N          0.66327000       0.35346000       0.48446000
    29  H          0.86740000       0.81220000       0.46410000
    30  H          0.13260000       0.81220000       0.53590000
    31  H          0.36740000       0.31220000       0.46410000
    32  H          0.63260000       0.31220000       0.53590000
    33  H          0.85070000       0.80130000       0.60610000
    34  H          0.14930000       0.80130000       0.39390000
    35  H          0.35070000       0.30130000       0.60610000
    36  H          0.64930000       0.30130000       0.39390000
    37  H          0.86960000       0.93710000       0.55590000
    38  H          0.13040000       0.93710000       0.44410000
    39  H          0.36960000       0.43710000       0.55590000
    40  H          0.63040000       0.43710000       0.44410000
    41  C          0.67823000       0.96546000       0.22955000
    42  C          0.32177000       0.96546000       0.77045000
    43  C          0.17823000       0.46546000       0.22955000
    44  C          0.82177000       0.46546000       0.77045000
    45  H          0.71850000       0.05370000       0.27960000
    46  H          0.28150000       0.05370000       0.72040000
    47  H          0.21850000       0.55370000       0.27960000
    48  H          0.78150000       0.55370000       0.72040000
    49  H          0.59390000       0.98420000       0.15570000
    50  H          0.40610000       0.98420000       0.84430000
    51  H          0.09390000       0.48420000       0.15570000
    52  H          0.90610000       0.48420000       0.84430000
    53  C          0.71303000       0.90785000       0.11015000
    54  C          0.28697000       0.90785000       0.88985000
    55  C          0.21303000       0.40785000       0.11015000
    56  C          0.78697000       0.40785000       0.88985000
    57  H          0.79780000       0.89350000       0.18060000
    58  H          0.20220000       0.89350000       0.81940000
    59  H          0.29780000       0.39350000       0.18060000
    60  H          0.70220000       0.39350000       0.81940000
    61  H          0.67470000       0.81850000       0.06090000
    62  H          0.32530000       0.81850000       0.93910000
    63  H          0.17470000       0.31850000       0.06090000
    64  H          0.82530000       0.31850000       0.93910000
    65  C          0.67664000       0.00895000       0.95985000
    66  C          0.32336000       0.00895000       0.04015000
    67  C          0.17664000       0.50895000       0.95985000
    68  C          0.82336000       0.50895000       0.04015000
    69  H          0.59370000       0.03200000       0.89990000
    70  H          0.40630000       0.03200000       0.10010000
    71  H          0.09370000       0.53200000       0.89990000
    72  H          0.90630000       0.53200000       0.10010000
    73  H          0.72180000       0.09430000       0.00990000
    74  H          0.27820000       0.09430000      -0.00990000
    75  H          0.22180000       0.59430000       0.00990000
    76  H          0.77820000       0.59430000      -0.00990000
    77  N          0.69463000       0.95295000       0.82756000
    78  N          0.30537000       0.95295000       0.17244000
    79  N          0.19463000       0.45295000       0.82756000
    80  N          0.80537000       0.45295000       0.17244000
    81  H          0.67260000       0.01670000       0.74300000
    82  H          0.32740000       0.01670000       0.25700000
    83  H          0.17260000       0.51670000       0.74300000
    84  H          0.82740000       0.51670000       0.25700000
    85  H          0.65140000       0.87610000       0.77830000
    86  H          0.34860000       0.87610000       0.22170000
    87  H          0.15140000       0.37610000       0.77830000
    88  H          0.84860000       0.37610000       0.22170000
    89  H          0.77060000       0.93260000       0.88140000
    90  H          0.22940000       0.93260000       0.11860000
    91  H          0.27060000       0.43260000       0.88140000
    92  H          0.72940000       0.43260000       0.11860000
    93  Cl         0.50000000       0.13289820       0.50000000
    94  Cl        -0.00000000       0.63289820       0.50000000
    95  N         -0.00000000       0.16004000       0.50000000
    96  N          0.50000000       0.66004000       0.50000000
    97  O         -0.00000000       0.03264000       0.50000000
    98  O          0.50000000       0.53264000       0.50000000
    99  O          0.90614000       0.22414000       0.41306000
   100  O          0.09386000       0.22414000       0.58694000
   101  O          0.40614000       0.72414000       0.41306000
   102  O          0.59386000       0.72414000       0.58694000
   103  S          0.50000000       0.39422850       0.00000000
   104  S         -0.00000000       0.89422850       0.00000000
   105  O          0.59863000       0.30836000       0.13864000
   106  O          0.40137000       0.30836000       0.86136000
   107  O          0.09863000       0.80836000       0.13864000
   108  O          0.90137000       0.80836000       0.86136000
   109  O          0.45342000       0.48366000       0.07744000
   110  O          0.54658000       0.48366000       0.92256000
   111  O          0.95342000       0.98366000       0.07744000
   112  O          0.04658000       0.98366000       0.92256000
