data_EVIKOJ
_symmetry_space_group_name_H-M    'P1'
_symmetry_Int_Tables_number       1
loop_
_symmetry_equiv_pos_site_id
_symmetry_equiv_pos_as_xyz
1 x,y,z
_cell_length_a                   8.0342
_cell_length_b                   13.4123
_cell_length_c                   21.6245
_cell_angle_alpha                76.255
_cell_angle_beta                 82.285
_cell_angle_gamma                89.735
loop_
_atom_site_label
_atom_site_type_symbol
_atom_site_fract_x
_atom_site_fract_y
_atom_site_fract_z
     1  I         -0.00200500       0.62541300       0.66986383
     2  I          0.00200500       0.37458700       0.33013617
     3  C          0.25368000       0.24354000       0.01112000
     4  C          0.74632000       0.75646000       0.98888000
     5  C          0.17898000       0.33454000       0.96717000
     6  C          0.82102000       0.66546000       0.03283000
     7  H          0.09490000       0.36620000       0.99240000
     8  H          0.90510000       0.63380000       0.00760000
     9  H          0.26650000       0.38560000       0.94620000
    10  H          0.73350000       0.61440000       0.05380000
    11  O          0.10236000       0.29763000       0.91906820
    12  O          0.89764000       0.70237000       0.08093180
    13  C          0.08078000       0.37045000       0.86637000
    14  C          0.91922000       0.62955000       0.13363000
    15  C          0.16767000       0.36884000       0.80607000
    16  C          0.83233000       0.63116000       0.19393000
    17  C          0.14427000       0.44084000       0.75237000
    18  C          0.85573000       0.55916000       0.24763000
    19  C          0.03137000       0.51714000       0.75368000
    20  C          0.96863000       0.48286000       0.24632000
    21  C          0.94232000       0.51934000       0.81337000
    22  C          0.05768000       0.48066000       0.18663000
    23  C          0.96692000       0.44715000       0.86767000
    24  C          0.03308000       0.55285000       0.13233000
    25  F          0.27765000       0.29483000       0.80288830
    26  F          0.72235000       0.70517000       0.19711170
    27  F          0.23524000       0.43463000       0.69676860
    28  F          0.76476000       0.56537000       0.30323140
    29  F          0.82816000       0.59333000       0.81713850
    30  F          0.17184000       0.40667000       0.18286150
    31  F          0.87776000       0.45393000       0.92305860
    32  F          0.12224000       0.54607000       0.07694140
    33  I          0.93583500       0.24676400       0.68338800
    34  I          0.06416500       0.75323600       0.31661200
    35  C          0.39048000       0.19355000       0.97368000
    36  C          0.60952000       0.80645000       0.02632000
    37  H          0.43010000       0.13330000       0.00190000
    38  H          0.56990000       0.86670000      -0.00190000
    39  H          0.34590000       0.17200000       0.93920000
    40  H          0.65410000       0.82800000       0.06080000
    41  O          0.52905000       0.26823000       0.94712830
    42  O          0.47095000       0.73177000       0.05287170
    43  C          0.61658000       0.26055000       0.89087000
    44  C          0.38342000       0.73945000       0.10913000
    45  C          0.60978000       0.34125000       0.83627000
    46  C          0.39022000       0.65875000       0.16373000
    47  C          0.70398000       0.33145000       0.77807000
    48  C          0.29602000       0.66855000       0.22193000
    49  C          0.80358000       0.24925000       0.77237000
    50  C          0.19642000       0.75075000       0.22763000
    51  C          0.80699000       0.17555000       0.82497000
    52  C          0.19301000       0.82445000       0.17503000
    53  C          0.71279000       0.18025000       0.88317000
    54  C          0.28721000       0.81975000       0.11683000
    55  F          0.51975000       0.42133000       0.84057840
    56  F          0.48025000       0.57867000       0.15942160
    57  F          0.69275000       0.41253000       0.72803840
    58  F          0.30725000       0.58747000       0.27196160
    59  F          0.89805000       0.09323000       0.82323820
    60  F          0.10195000       0.90677000       0.17676180
    61  F          0.72285000       0.10163000       0.93453830
    62  F          0.27715000       0.89837000       0.06546170
    63  I          0.47724600       0.25419400       0.37667019
    64  I          0.52275400       0.74580600       0.62332981
    65  C          0.32478000       0.28954000       0.06013000
    66  C          0.67522000       0.71046000       0.93987000
    67  H          0.40410000       0.34520000       0.03860000
    68  H          0.59590000       0.65480000       0.96140000
    69  H          0.23520000       0.31620000       0.08590000
    70  H          0.76480000       0.68380000       0.91410000
    71  O          0.40796000       0.20793000       0.10029180
    72  O          0.59204000       0.79207000       0.89970820
    73  C          0.41968000       0.22065000       0.15903000
    74  C          0.58032000       0.77935000       0.84097000
    75  C          0.34288000       0.15514000       0.21333000
    76  C          0.65712000       0.84486000       0.78667000
    77  C          0.35928000       0.16545000       0.27513000
    78  C          0.64072000       0.83455000       0.72487000
    79  C          0.45838000       0.24465000       0.28373000
    80  C          0.54162000       0.75535000       0.71627000
    81  C          0.53788000       0.30725000       0.22953000
    82  C          0.46212000       0.69275000       0.77047000
    83  C          0.51989000       0.29755000       0.17003000
    84  C          0.48011000       0.70245000       0.82997000
    85  F          0.24335000       0.07763000       0.20766170
    86  F          0.75665000       0.92237000       0.79233830
    87  F          0.27284000       0.09743000       0.32449150
    88  F          0.72716000       0.90257000       0.67550850
    89  F          0.63605000       0.38423000       0.23644190
    90  F          0.36395000       0.61577000       0.76355810
    91  F          0.60675000       0.36503000       0.11880180
    92  F          0.39325000       0.63497000       0.88119820
    93  I          0.57046300       0.89778600       0.30680300
    94  I          0.42953700       0.10221400       0.69319700
    95  C          0.11968000       0.15955000       0.04083000
    96  C          0.88032000       0.84045000       0.95917000
    97  H          0.08180000       0.13140000       0.00750000
    98  H          0.91820000       0.86860000       0.99250000
    99  H          0.16580000       0.10440000       0.07090000
   100  H          0.83420000       0.89560000       0.92910000
   101  O          0.97924000       0.20383000       0.07404180
   102  O          0.02076000       0.79617000       0.92595820
   103  C          0.88762000       0.13685000       0.12463000
   104  C          0.11238000       0.86315000       0.87537000
   105  C          0.88192000       0.14655000       0.18583000
   106  C          0.11808000       0.85345000       0.81417000
   107  C          0.78961000       0.08035000       0.23603000
   108  C          0.21039000       0.91965000       0.76397000
   109  C          0.70102000      -0.00135000       0.22873000
   110  C          0.29898000       0.00135000       0.77127000
   111  C          0.70432000       0.98945000       0.16703000
   112  C          0.29568000       0.01055000       0.83297000
   113  C          0.79331000       0.05775000       0.11613000
   114  C          0.20669000       0.94225000       0.88387000
   115  F          0.96665000       0.22783000       0.19620180
   116  F          0.03335000       0.77217000       0.80379820
   117  F          0.79525000       0.09753000       0.29516160
   118  F          0.20475000       0.90247000       0.70483840
   119  F          0.61675000       0.91057000       0.15702000
   120  F          0.38325000       0.08943000       0.84298000
   121  F          0.79354000       0.04033000       0.05771180
   122  F          0.20646000       0.95967000       0.94228820
   123  O          0.00826000       0.75914000       0.54542000
   124  O         -0.00826000       0.24086000       0.45458000
   125  N          0.09436000       0.84774000       0.53532000
   126  N          0.90564000       0.15226000       0.46468000
   127  C          0.06678000       0.90505000       0.57663000
   128  C          0.93322000       0.09495000       0.42337000
   129  H         -0.01230000       0.88410000       0.61310000
   130  H          0.01230000       0.11590000       0.38690000
   131  C          0.15449000      -0.00455000       0.56603000
   132  C          0.84551000       0.00455000       0.43397000
   133  H          0.13610000       0.03690000       0.59500000
   134  H          0.86390000       0.96310000       0.40500000
   135  C          0.27029000       0.02466000       0.51174000
   136  C          0.72971000       0.97534000       0.48826000
   137  H          0.33070000       0.08640000       0.50340000
   138  H          0.66930000       0.91360000       0.49660000
   139  C          0.29489000       0.96436000       0.47154000
   140  C          0.70511000       0.03564000       0.52846000
   141  H          0.37460000       0.98250000       0.43510000
   142  H          0.62540000       0.01750000       0.56490000
   143  C          0.20369000       0.87585000       0.48363000
   144  C          0.79631000       0.12415000       0.51637000
   145  H          0.21900000       0.83430000       0.45460000
   146  H          0.78100000       0.16570000       0.54540000
   147  O          0.47766000       0.26354000       0.52613000
   148  O          0.52234000       0.73646000       0.47387000
   149  N          0.55767000       0.34505000       0.53413000
   150  N          0.44233000       0.65495000       0.46587000
   151  C          0.68799000       0.38376000       0.49184000
   152  C          0.31201000       0.61624000       0.50816000
   153  H          0.72180000       0.35450000       0.45740000
   154  H          0.27820000       0.64550000       0.54260000
   155  C          0.77238000       0.46645000       0.49883000
   156  C          0.22762000       0.53355000       0.50117000
   157  H          0.86190000       0.49570000       0.46800000
   158  H          0.13810000       0.50430000       0.53200000
   159  C          0.72781000       0.50786000       0.55064000
   160  C          0.27219000       0.49214000       0.44936000
   161  H          0.78530000       0.56460000       0.55590000
   162  H          0.21470000       0.43540000       0.44410000
   163  C          0.59821200       0.46297000       0.59303000
   164  C          0.40178800       0.53703000       0.40697000
   165  H          0.56550000       0.48870000       0.62890000
   166  H          0.43450000       0.51130000       0.37110000
   167  C          0.51441000       0.38286000       0.58554000
   168  C          0.48559000       0.61714000       0.41446000
   169  H          0.42510000       0.35280000       0.61620000
   170  H          0.57490000       0.64720000       0.38380000
   171  O          0.13446000       0.25855000       0.55992000
   172  O          0.86554000       0.74145000       0.44008000
   173  H          0.07411000       0.24170000       0.53140000
   174  H          0.92589000       0.75830000       0.46860000
   175  H          0.24780000       0.25970000       0.54450000
   176  H          0.75220000       0.74030000       0.45550000
