data_EVUCIK01
_symmetry_space_group_name_H-M    'P1'
_symmetry_Int_Tables_number       1
loop_
_symmetry_equiv_pos_site_id
_symmetry_equiv_pos_as_xyz
1 x,y,z
_cell_length_a                   9.58014
_cell_length_b                   14.77696
_cell_length_c                   12.88475
_cell_angle_alpha                90.0
_cell_angle_beta                 109.159211
_cell_angle_gamma                90.0
loop_
_atom_site_label
_atom_site_type_symbol
_atom_site_fract_x
_atom_site_fract_y
_atom_site_fract_z
     1  I         -0.01342700       0.63895500       0.10071500
     2  I          0.01342700       0.13895500       0.89928500
     3  I          0.75164300       0.75981500       0.10241500
     4  I          0.24835700       0.25981500       0.89758500
     5  I          0.24069700       0.53307500       0.08797500
     6  I          0.75930300       0.03307500       0.91202500
     7  I          0.36579800       0.51820400       0.38101500
     8  I          0.63420200       0.01820400       0.61898500
     9  I          0.93649700       0.49666600       0.75706600
    10  I          0.06350300      -0.00333400       0.24293400
    11  I          0.36768700       0.52647500       0.85539500
    12  I          0.63231300       0.02647500       0.14460500
    13  F          0.70036000       0.50164000       0.51844000
    14  F          0.29964000       0.00164000       0.48156000
    15  F          0.70116000       0.51184000       0.88094000
    16  F          0.29884000       0.01184000       0.11906000
    17  F          0.25515000       0.52905000       0.59144000
    18  F          0.74485000       0.02905000       0.40856000
    19  C          0.47571000       0.51586000       0.55117000
    20  C          0.52429000       0.01586000       0.44883000
    21  C          0.62741100       0.50857000       0.59188000
    22  C          0.37258900       0.00857000       0.40812000
    23  C          0.70769000       0.50766000       0.70227000
    24  C          0.29231000       0.00766000       0.29773000
    25  C          0.62671000       0.51287000       0.77307000
    26  C          0.37329000       0.01287000       0.22693000
    27  C          0.47589000       0.52136000       0.73887000
    28  C          0.52411000       0.02136000       0.26113000
    29  C          0.40279000       0.52207000       0.62727000
    30  C          0.59721000       0.02207000       0.37273000
    31  I          0.37232700       0.26271500       0.19581500
    32  I          0.62767300       0.76271500       0.80418500
    33  I          0.95470700       0.25884600       0.56064600
    34  I          0.04529300       0.75884600       0.43935400
    35  I          0.39193700       0.26670500       0.67300500
    36  I          0.60806300       0.76670500       0.32699500
    37  F          0.71026000       0.25524000       0.32624000
    38  F          0.28974000       0.75524000       0.67376000
    39  F          0.72826000       0.27014000       0.69294000
    40  F          0.27174000       0.77014000       0.30706000
    41  F          0.27145000       0.26434000       0.41054000
    42  F          0.72855000       0.76434000       0.58946000
    43  C          0.48811000       0.26157000       0.36347000
    44  C          0.51189000       0.76157000       0.63653000
    45  C          0.64041000       0.25987000       0.40067000
    46  C          0.35959000       0.75987000       0.59933000
    47  C          0.72579000       0.26317000       0.51147000
    48  C          0.27421000       0.76317000       0.48853000
    49  C          0.64881000       0.26737000       0.58507000
    50  C          0.35119000       0.76737000       0.41493000
    51  C          0.49701000       0.26767000       0.55467000
    52  C          0.50299000       0.76767000       0.44533000
    53  C          0.41959000       0.26327000       0.44267000
    54  C          0.58041000       0.76327000       0.55733000
    55  N          0.83938000       0.32265000       0.10006000
    56  N          0.16062000       0.82265000       0.89994000
    57  C          0.82621000       0.39366000       0.18087000
    58  C          0.17379000       0.89366000       0.81913000
    59  C          0.69801100       0.44167000       0.15969000
    60  C          0.30198900       0.94167000       0.84031000
    61  H          0.61531700       0.42902800       0.09628900
    62  H          0.38468300       0.92902800       0.90371100
    63  C          0.69101200       0.50988000       0.23321000
    64  C          0.30898800       0.00988000       0.76679000
    65  H          0.60349100       0.54475900       0.21897100
    66  H          0.39650900       0.04475900       0.78102900
    67  C          0.80991200       0.52688000       0.32619000
    68  C          0.19008800       0.02688000       0.67381000
    69  H          0.80406500       0.57180500       0.37709100
    70  H          0.19593500       0.07180500       0.62290900
    71  C          0.93721300       0.47748000       0.34369000
    72  C          0.06278700       0.97748000       0.65631000
    73  H          0.02008300       0.48933000       0.40696200
    74  H          0.97991700       0.98933000       0.59303800
    75  C          0.94751100       0.41007000       0.27058000
    76  C          0.05248900       0.91007000       0.72942000
    77  H          0.03619500       0.37655600       0.28276500
    78  H          0.96380500       0.87655600       0.71723500
    79  C          0.69281200       0.29728000       0.01779000
    80  C          0.30718800       0.79728000       0.98221000
    81  H          0.64616200       0.35119500       0.97658100
    82  H          0.35383800       0.85119500       0.02341900
    83  H          0.62875900       0.27189600       0.05603900
    84  H          0.37124100       0.77189600       0.94396100
    85  H          0.70803200       0.25210500       0.96670200
    86  H          0.29196800       0.75210500       0.03329800
    87  C          0.93371200       0.35927000       0.03789000
    88  C          0.06628800       0.85927000       0.96211000
    89  H          0.89486100       0.41794400       0.00587000
    90  H          0.10513900       0.91794400      -0.00587000
    91  H          0.93302600       0.31700900       0.97901200
    92  H          0.06697400       0.81700900       0.02098800
    93  H          0.03512200       0.36674100       0.08778200
    94  H          0.96487800       0.86674100       0.91221800
    95  C          0.90811200       0.23676000       0.15839000
    96  C          0.09188800       0.73676000       0.84161000
    97  H          0.91083700       0.19098600       0.10390300
    98  H          0.08916300       0.69098600       0.89609700
    99  H          0.84925000       0.21407800       0.20225100
   100  H          0.15075000       0.71407800       0.79774900
   101  H          0.00898300       0.24936500       0.20654500
   102  H         -0.00898300       0.74936500       0.79345500
