data_EVULUF
_symmetry_space_group_name_H-M    'P1'
_symmetry_Int_Tables_number       1
loop_
_symmetry_equiv_pos_site_id
_symmetry_equiv_pos_as_xyz
1 x,y,z
_cell_length_a                   31.3605
_cell_length_b                   5.45018
_cell_length_c                   14.6262
_cell_angle_alpha                90.0
_cell_angle_beta                 94.9399
_cell_angle_gamma                90.0
loop_
_atom_site_label
_atom_site_type_symbol
_atom_site_fract_x
_atom_site_fract_y
_atom_site_fract_z
     1  O          0.17194400       0.24313000       0.72363100
     2  O          0.82805600       0.24313000       0.27636900
     3  O          0.67194400       0.74313000       0.72363100
     4  O          0.32805600       0.74313000       0.27636900
     5  H          0.17890000       0.15720000       0.77020000
     6  H          0.82110000       0.15720000       0.22980000
     7  H          0.67890000       0.65720000       0.77020000
     8  H          0.32110000       0.65720000       0.22980000
     9  O          0.38467400       0.03163000       0.55236110
    10  O          0.61532600       0.03163000       0.44763890
    11  O          0.88467400       0.53163000       0.55236110
    12  O          0.11532600       0.53163000       0.44763890
    13  O          0.46664400       0.66633000       0.38243900
    14  O          0.53335600       0.66633000       0.61756100
    15  O          0.96664400       0.16633000       0.38243900
    16  O          0.03335600       0.16633000       0.61756100
    17  O          0.60123500       0.74473000       0.08474900
    18  O          0.39876500       0.74473000       0.91525100
    19  O          0.10123500       0.24473000       0.08474900
    20  O          0.89876500       0.24473000       0.91525100
    21  H          0.58910000       0.84350000       0.04690000
    22  H          0.41090000       0.84350000       0.95310000
    23  H          0.08910000       0.34350000       0.04690000
    24  H          0.91090000       0.34350000       0.95310000
    25  C          0.20011600       0.57024000       0.64131140
    26  C          0.79988400       0.57024000       0.35868860
    27  C          0.70011600       0.07024000       0.64131140
    28  C          0.29988400       0.07024000       0.35868860
    29  H          0.17190000       0.61150000       0.61750000
    30  H          0.82810000       0.61150000       0.38250000
    31  H          0.67190000       0.11150000       0.61750000
    32  H          0.32810000       0.11150000       0.38250000
    33  C          0.23454600       0.70944000       0.61751140
    34  C          0.76545400       0.70944000       0.38248860
    35  C          0.73454600       0.20944000       0.61751140
    36  C          0.26545400       0.20944000       0.38248860
    37  H          0.22940000       0.84460000       0.57700000
    38  H          0.77060000       0.84460000       0.42300000
    39  H          0.72940000       0.34460000       0.57700000
    40  H          0.27060000       0.34460000       0.42300000
    41  C          0.27611600       0.65624000       0.65121130
    42  C          0.72388400       0.65624000       0.34878870
    43  C          0.77611600       0.15624000       0.65121130
    44  C          0.22388400       0.15624000       0.34878870
    45  C          0.28211600       0.45364000       0.70812140
    46  C          0.71788400       0.45364000       0.29187860
    47  C          0.78211600       0.95364000       0.70812140
    48  C          0.21788400       0.95364000       0.29187860
    49  H          0.31030000       0.41130000       0.73160000
    50  H          0.68970000       0.41130000       0.26840000
    51  H          0.81030000       0.91130000       0.73160000
    52  H          0.18970000       0.91130000       0.26840000
    53  C          0.24813600       0.31084000       0.73180130
    54  C          0.75186400       0.31084000       0.26819870
    55  C          0.74813600       0.81084000       0.73180130
    56  C          0.25186400       0.81084000       0.26819870
    57  H          0.25330000       0.17130000       0.77010000
    58  H          0.74670000       0.17130000       0.22990000
    59  H          0.75330000       0.67130000       0.77010000
    60  H          0.24670000       0.67130000       0.22990000
    61  C          0.20685600       0.37104000       0.69972130
    62  C          0.79314400       0.37104000       0.30027870
    63  C          0.70685600       0.87104000       0.69972130
    64  C          0.29314400       0.87104000       0.30027870
    65  C          0.31367600       0.80954000       0.62611150
    66  C          0.68632400       0.80954000       0.37388850
    67  C          0.81367600       0.30954000       0.62611150
    68  C          0.18632400       0.30954000       0.37388850
    69  H          0.33300000       0.84110000       0.68200000
    70  H          0.66700000       0.84110000       0.31800000
    71  H          0.83300000       0.34110000       0.68200000
    72  H          0.16700000       0.34110000       0.31800000
    73  H          0.30310000       0.96960000       0.60160000
    74  H          0.69690000       0.96960000       0.39840000
    75  H          0.80310000       0.46960000       0.60160000
    76  H          0.19690000       0.46960000       0.39840000
    77  C          0.33862600       0.68274000       0.55488130
    78  C          0.66137400       0.68274000       0.44511870
    79  C          0.83862600       0.18274000       0.55488130
    80  C          0.16137400       0.18274000       0.44511870
    81  H          0.34830000       0.52060000       0.57920000
    82  H          0.65170000       0.52060000       0.42080000
    83  H          0.84830000       0.02060000       0.57920000
    84  H          0.15170000       0.02060000       0.42080000
    85  H          0.31910000       0.65340000       0.49910000
    86  H          0.68090000       0.65340000       0.50090000
    87  H          0.81910000       0.15340000       0.49910000
    88  H          0.18090000       0.15340000       0.50090000
    89  C          0.37712500       0.82314000       0.52792120
    90  C          0.62287500       0.82314000       0.47207880
    91  C          0.87712500       0.32314000       0.52792120
    92  C          0.12287500       0.32314000       0.47207880
    93  C          0.40476600       0.68434000       0.46630120
    94  C          0.59523400       0.68434000       0.53369880
    95  C          0.90476600       0.18434000       0.46630120
    96  C          0.09523400       0.18434000       0.53369880
    97  H          0.38770000       0.64890000       0.40770000
    98  H          0.61230000       0.64890000       0.59230000
    99  H          0.88770000       0.14890000       0.40770000
   100  H          0.11230000       0.14890000       0.59230000
   101  H          0.41280000       0.52510000       0.49560000
   102  H          0.58720000       0.52510000       0.50440000
   103  H          0.91280000       0.02510000       0.49560000
   104  H          0.08720000       0.02510000       0.50440000
   105  C          0.44546500       0.81764000       0.44528110
   106  C          0.55453500       0.81764000       0.55471890
   107  C          0.94546500       0.31764000       0.44528110
   108  C          0.05453500       0.31764000       0.55471890
   109  H          0.43740000      -0.02350000       0.41430000
   110  H          0.56260000      -0.02350000       0.58570000
   111  H          0.93740000       0.47650000       0.41430000
   112  H          0.06260000       0.47650000       0.58570000
   113  C          0.47915500       0.86813000       0.52400100
   114  C          0.52084500       0.86813000       0.47599900
   115  C          0.97915500       0.36813000       0.52400100
   116  C          0.02084500       0.36813000       0.47599900
   117  H          0.47430000       0.02930000       0.55400000
   118  H          0.52570000       0.02930000       0.44600000
   119  H          0.97430000       0.52930000       0.55400000
   120  H          0.02570000       0.52930000       0.44600000
   121  C          0.51231500       0.66263000       0.40519110
   122  C          0.48768500       0.66263000       0.59480890
   123  C          0.01231500       0.16263000       0.40519110
   124  C          0.98768500       0.16263000       0.59480890
   125  H          0.52030000       0.50230000       0.43520000
   126  H          0.47970000       0.50230000       0.56480000
   127  H          0.02030000       0.00230000       0.43520000
   128  H          0.97970000       0.00230000       0.56480000
   129  C          0.53516500       0.68513000       0.31867100
   130  C          0.46483500       0.68513000       0.68132900
   131  C          0.03516500       0.18513000       0.31867100
   132  C          0.96483500       0.18513000       0.68132900
   133  C          0.52703600       0.87994000       0.25901120
   134  C          0.47296400       0.87994000       0.74098880
   135  C          0.02703600       0.37994000       0.25901120
   136  C          0.97296400       0.37994000       0.74098880
   137  H          0.50650000       0.00010000       0.27230000
   138  H          0.49350000       0.00010000       0.72770000
   139  H          0.00650000       0.50010000       0.27230000
   140  H          0.99350000       0.50010000       0.72770000
   141  C          0.54827600       0.90284000       0.18013120
   142  C          0.45172400       0.90284000       0.81986880
   143  C          0.04827600       0.40284000       0.18013120
   144  C          0.95172400       0.40284000       0.81986880
   145  H          0.54220000       0.03760000       0.13990000
   146  H          0.45780000       0.03760000       0.86010000
   147  H          0.04220000       0.53760000       0.13990000
   148  H          0.95780000       0.53760000       0.86010000
   149  C          0.57847600       0.72844000       0.15996120
   150  C          0.42152400       0.72844000       0.84003880
   151  C          0.07847600       0.22844000       0.15996120
   152  C          0.92152400       0.22844000       0.84003880
   153  C          0.58637600       0.53204000       0.21860130
   154  C          0.41362400       0.53204000       0.78139870
   155  C          0.08637600       0.03204000       0.21860130
   156  C          0.91362400       0.03204000       0.78139870
   157  H          0.60670000       0.41090000       0.20520000
   158  H          0.39330000       0.41090000       0.79480000
   159  H          0.10670000       0.91090000       0.20520000
   160  H          0.89330000       0.91090000       0.79480000
   161  C          0.56480600       0.51083000       0.29686120
   162  C          0.43519400       0.51083000       0.70313880
   163  C          0.06480600       0.01083000       0.29686120
   164  C          0.93519400       0.01083000       0.70313880
   165  H          0.57040000       0.37410000       0.33640000
   166  H          0.42960000       0.37410000       0.66360000
   167  H          0.07040000       0.87410000       0.33640000
   168  H          0.92960000       0.87410000       0.66360000
   169  N          0.42395600       0.06974000       0.05159130
   170  N          0.57604400       0.06974000       0.94840870
   171  N          0.92395600       0.56974000       0.05159130
   172  N          0.07604400       0.56974000       0.94840870
   173  C          0.44699800       0.26975000       0.04727190
   174  C          0.55300200       0.26975000       0.95272810
   175  C          0.94699800       0.76975000       0.04727190
   176  C          0.05300200       0.76975000       0.95272810
   177  H          0.45890000       0.30580000      -0.00870000
   178  H          0.54110000       0.30580000       0.00870000
   179  H          0.95890000       0.80580000      -0.00870000
   180  H          0.04110000       0.80580000       0.00870000
   181  C          0.45463900       0.42736000       0.11832000
   182  C          0.54536100       0.42736000       0.88168000
   183  C          0.95463900       0.92736000       0.11832000
   184  C          0.04536100       0.92736000       0.88168000
   185  H          0.47220000       0.56750000       0.11220000
   186  H          0.52780000       0.56750000       0.88780000
   187  H          0.97220000       0.06750000       0.11220000
   188  H          0.02780000       0.06750000       0.88780000
   189  C          0.43696900       0.38356000       0.19882000
   190  C          0.56303100       0.38356000       0.80118000
   191  C          0.93696900       0.88356000       0.19882000
   192  C          0.06303100       0.88356000       0.80118000
   193  H          0.44170000       0.49270000       0.24930000
   194  H          0.55830000       0.49270000       0.75070000
   195  H          0.94170000      -0.00730000       0.24930000
   196  H          0.05830000      -0.00730000       0.75070000
   197  C          0.41183900       0.17516000       0.20507170
   198  C          0.58816100       0.17516000       0.79492830
   199  C          0.91183900       0.67516000       0.20507170
   200  C          0.08816100       0.67516000       0.79492830
   201  H          0.39860000       0.13910000       0.25950000
   202  H          0.60140000       0.13910000       0.74050000
   203  H          0.89860000       0.63910000       0.25950000
   204  H          0.10140000       0.63910000       0.74050000
   205  C          0.40680800       0.02365000       0.13040150
   206  C          0.59319200       0.02365000       0.86959850
   207  C          0.90680800       0.52365000       0.13040150
   208  C          0.09319200       0.52365000       0.86959850
   209  H          0.39030000       0.87840000       0.13470000
   210  H          0.60970000       0.87840000       0.86530000
   211  H          0.89030000       0.37840000       0.13470000
   212  H          0.10970000       0.37840000       0.86530000
   213  N          0.31089500       0.45683000       0.11755120
   214  N          0.68910500       0.45683000       0.88244880
   215  N          0.81089500       0.95683000       0.11755120
   216  N          0.18910500       0.95683000       0.88244880
   217  C          0.33179600       0.47964000       0.04248150
   218  C          0.66820400       0.47964000       0.95751850
   219  C          0.83179600      -0.02036000       0.04248150
   220  C          0.16820400      -0.02036000       0.95751850
   221  H          0.34900000       0.62120000       0.03700000
   222  H          0.65100000       0.62120000       0.96300000
   223  H          0.84900000       0.12120000       0.03700000
   224  H          0.15100000       0.12120000       0.96300000
   225  C          0.32993700       0.31035000       0.97230850
   226  C          0.67006300       0.31035000       0.02769150
   227  C          0.82993700       0.81035000       0.97230850
   228  C          0.17006300       0.81035000       0.02769150
   229  H          0.34530000       0.33550000       0.91990000
   230  H          0.65470000       0.33550000       0.08010000
   231  H          0.84530000       0.83550000       0.91990000
   232  H          0.15470000       0.83550000       0.08010000
   233  C          0.30521700       0.10344000       0.97993850
   234  C          0.69478300       0.10344000       0.02006150
   235  C          0.80521700       0.60344000       0.97993850
   236  C          0.19478300       0.60344000       0.02006150
   237  H          0.30330000      -0.01800000       0.93320000
   238  H          0.69670000      -0.01800000       0.06680000
   239  H          0.80330000       0.48200000       0.93320000
   240  H          0.19670000       0.48200000       0.06680000
   241  C          0.28346700       0.07734000       0.05670150
   242  C          0.71653300       0.07734000       0.94329850
   243  C          0.78346700       0.57734000       0.05670150
   244  C          0.21653300       0.57734000       0.94329850
   245  H          0.26620000       0.93650000       0.06410000
   246  H          0.73380000       0.93650000       0.93590000
   247  H          0.76620000       0.43650000       0.06410000
   248  H          0.23380000       0.43650000       0.93590000
   249  C          0.28681600       0.25704000       0.12306140
   250  C          0.71318400       0.25704000       0.87693860
   251  C          0.78681600       0.75704000       0.12306140
   252  C          0.21318400       0.75704000       0.87693860
   253  H          0.27120000       0.23760000       0.17540000
   254  H          0.72880000       0.23760000       0.82460000
   255  H          0.77120000       0.73760000       0.17540000
   256  H          0.22880000       0.73760000       0.82460000
