data_EWAHER
_symmetry_space_group_name_H-M    'P1'
_symmetry_Int_Tables_number       1
loop_
_symmetry_equiv_pos_site_id
_symmetry_equiv_pos_as_xyz
1 x,y,z
_cell_length_a                   15.073319
_cell_length_b                   9.167711
_cell_length_c                   8.26391
_cell_angle_alpha                90.0
_cell_angle_beta                 94.4622
_cell_angle_gamma                90.0
loop_
_atom_site_label
_atom_site_type_symbol
_atom_site_fract_x
_atom_site_fract_y
_atom_site_fract_z
     1  H          0.22550000      -0.00000000       0.44790000
     2  H          0.77450000      -0.00000000       0.55210000
     3  H          0.72550000       0.50000000       0.44790000
     4  H          0.27450000       0.50000000       0.55210000
     5  C          0.18273000       0.12575000       0.25416000
     6  C          0.81727000       0.12575000       0.74584000
     7  C          0.68273000       0.62575000       0.25416000
     8  C          0.31727000       0.62575000       0.74584000
     9  C          0.81727000       0.87425000       0.74584000
    10  C          0.18273000       0.87425000       0.25416000
    11  C          0.31727000       0.37425000       0.74584000
    12  C          0.68273000       0.37425000       0.25416000
    13  H          0.19340000       0.21280000       0.30980000
    14  H          0.80660000       0.21280000       0.69020000
    15  H          0.69340000       0.71280000       0.30980000
    16  H          0.30660000       0.71280000       0.69020000
    17  H          0.80660000       0.78720000       0.69020000
    18  H          0.19340000       0.78720000       0.30980000
    19  H          0.30660000       0.28720000       0.69020000
    20  H          0.69340000       0.28720000       0.30980000
    21  C          0.15463000       0.12786000       0.09836000
    22  C          0.84537000       0.12786000       0.90164000
    23  C          0.65463000       0.62786000       0.09836000
    24  C          0.34537000       0.62786000       0.90164000
    25  C          0.84537000       0.87214000       0.90164000
    26  C          0.15463000       0.87214000       0.09836000
    27  C          0.34537000       0.37214000       0.90164000
    28  C          0.65463000       0.37214000       0.09836000
    29  H          0.14390000       0.21590000       0.04450000
    30  H          0.85610000       0.21590000       0.95550000
    31  H          0.64390000       0.71590000       0.04450000
    32  H          0.35610000       0.71590000       0.95550000
    33  H          0.85610000       0.78410000       0.95550000
    34  H          0.14390000       0.78410000       0.04450000
    35  H          0.35610000       0.28410000       0.95550000
    36  H          0.64390000       0.28410000       0.04450000
    37  C          0.14165000      -0.00000000       0.01878000
    38  C          0.85835000      -0.00000000       0.98122000
    39  C          0.64165000       0.50000000       0.01878000
    40  C          0.35835000       0.50000000       0.98122000
    41  H          0.12370000      -0.00000000       0.90850000
    42  H          0.87630000      -0.00000000       0.09150000
    43  H          0.62370000       0.50000000       0.90850000
    44  H          0.37630000       0.50000000       0.09150000
    45  N          0.19573000      -0.00000000       0.33076000
    46  N          0.80427000      -0.00000000       0.66924000
    47  N          0.69573000       0.50000000       0.33076000
    48  N          0.30427000       0.50000000       0.66924000
    49  C          0.43623000      -0.00000000       0.35765000
    50  C          0.56377000      -0.00000000       0.64235000
    51  C          0.93623000       0.50000000       0.35765000
    52  C          0.06377000       0.50000000       0.64235000
    53  H          0.37990000      -0.00000000       0.40960000
    54  H          0.62010000      -0.00000000       0.59040000
    55  H          0.87990000       0.50000000       0.40960000
    56  H          0.12010000       0.50000000       0.59040000
    57  C          0.48802000       0.13614000       0.40864000
    58  C          0.51198000       0.13614000       0.59136000
    59  C          0.98802000       0.63614000       0.40864000
    60  C          0.01198000       0.63614000       0.59136000
    61  C          0.51198000       0.86386000       0.59136000
    62  C          0.48802000       0.86386000       0.40864000
    63  C          0.01198000       0.36386000       0.59136000
    64  C          0.98802000       0.36386000       0.40864000
    65  H          0.54240000       0.14080000       0.35130000
    66  H          0.45760000       0.14080000       0.64870000
    67  H          0.04240000       0.64080000       0.35130000
    68  H          0.95760000       0.64080000       0.64870000
    69  H          0.45760000       0.85920000       0.64870000
    70  H          0.54240000       0.85920000       0.35130000
    71  H          0.95760000       0.35920000       0.64870000
    72  H          0.04240000       0.35920000       0.35130000
    73  Cl         0.41236100      -0.00000000       0.14218150
    74  Cl         0.58763900      -0.00000000       0.85781850
    75  Cl         0.91236100       0.50000000       0.14218150
    76  Cl         0.08763900       0.50000000       0.85781850
    77  Cl         0.42043900       0.29203120       0.35784130
    78  Cl         0.57956100       0.29203120       0.64215870
    79  Cl         0.92043900       0.79203120       0.35784130
    80  Cl         0.07956100       0.79203120       0.64215870
    81  Cl         0.57956100       0.70796880       0.64215870
    82  Cl         0.42043900       0.70796880       0.35784130
    83  Cl         0.07956100       0.20796880       0.64215870
    84  Cl         0.92043900       0.20796880       0.35784130
    85  Cl         0.29018900      -0.00000000       0.68130170
    86  Cl         0.70981100       0.00000000       0.31869830
    87  Cl         0.79018900       0.50000000       0.68130170
    88  Cl         0.20981100       0.50000000       0.31869830
