data_EWAHIV
_symmetry_space_group_name_H-M    'P1'
_symmetry_Int_Tables_number       1
loop_
_symmetry_equiv_pos_site_id
_symmetry_equiv_pos_as_xyz
1 x,y,z
_cell_length_a                   7.42622
_cell_length_b                   17.33015
_cell_length_c                   17.09485
_cell_angle_alpha                90.0
_cell_angle_beta                 95.6133
_cell_angle_gamma                90.0
loop_
_atom_site_label
_atom_site_type_symbol
_atom_site_fract_x
_atom_site_fract_y
_atom_site_fract_z
     1  Cl         0.46182000       0.17200700       0.22162110
     2  Cl         0.53818000       0.67200700       0.27837890
     3  Cl         0.53818000       0.82799300       0.77837890
     4  Cl         0.46182000       0.32799300       0.72162110
     5  Cl         0.35783000       0.17312900       0.40199120
     6  Cl         0.64217000       0.67312900       0.09800880
     7  Cl         0.64217000       0.82687100       0.59800880
     8  Cl         0.35783000       0.32687100       0.90199120
     9  Cl         0.51353000       0.32589100       0.49582800
    10  Cl         0.48647000       0.82589100       0.00417200
    11  Cl         0.48647000       0.67410900       0.50417200
    12  Cl         0.51353000       0.17410900      -0.00417200
    13  C          0.46737000       0.39833000       0.35563000
    14  C          0.53263000       0.89833000       0.14437000
    15  C          0.53263000       0.60167000       0.64437000
    16  C          0.46737000       0.10167000       0.85563000
    17  H          0.59960000       0.39760000       0.35740000
    18  H          0.40040000       0.89760000       0.14260000
    19  H          0.40040000       0.60240000       0.64260000
    20  H          0.59960000       0.10240000       0.85740000
    21  Cl         0.39902000       0.48280800       0.40391800
    22  Cl         0.60098000       0.98280800       0.09608200
    23  Cl         0.60098000       0.51719200       0.59608200
    24  Cl         0.39902000       0.01719200       0.90391800
    25  Cl         0.46372000       0.48226700       0.22299800
    26  Cl         0.53628000       0.98226700       0.27700200
    27  Cl         0.53628000       0.51773300       0.77700200
    28  Cl         0.46372000       0.01773300       0.72299800
    29  C          0.38726000       0.39903000       0.27062000
    30  C          0.61274000       0.89903000       0.22938000
    31  C          0.61274000       0.60097000       0.72938000
    32  C          0.38726000       0.10097000       0.77062000
    33  H          0.25500000       0.40070000       0.26900000
    34  H          0.74500000       0.90070000       0.23100000
    35  H          0.74500000       0.59930000       0.73100000
    36  H          0.25500000       0.09930000       0.76900000
    37  C          0.44167000       0.32692000       0.22843000
    38  C          0.55833000       0.82692000       0.27157000
    39  C          0.55833000       0.67308000       0.77157000
    40  C          0.44167000       0.17308000       0.72843000
    41  H          0.57350000       0.32620000       0.22810000
    42  H          0.42650000       0.82620000       0.27190000
    43  H          0.42650000       0.67380000       0.77190000
    44  H          0.57350000       0.17380000       0.72810000
    45  Cl         0.33972000       0.32799800       0.12920800
    46  Cl         0.66028000       0.82799800       0.37079200
    47  Cl         0.66028000       0.67200200       0.87079200
    48  Cl         0.33972000       0.17200200       0.62920800
    49  C          0.38266000       0.25473000       0.26893000
    50  C          0.61734000       0.75473000       0.23107000
    51  C          0.61734000       0.74527000       0.73107000
    52  C          0.38266000       0.24527000       0.76893000
    53  H          0.25010000       0.25330000       0.26460000
    54  H          0.74990000       0.75330000       0.23540000
    55  H          0.74990000       0.74670000       0.73540000
    56  H          0.25010000       0.24670000       0.76460000
    57  C          0.45356000       0.25383000       0.35563000
    58  C          0.54644000       0.75383000       0.14437000
    59  C          0.54644000       0.74617000       0.64437000
    60  C          0.45356000       0.24617000       0.85563000
    61  H          0.58540000       0.24820000       0.36010000
    62  H          0.41460000       0.74820000       0.13990000
    63  H          0.41460000       0.75180000       0.63990000
    64  H          0.58540000       0.25180000       0.86010000
    65  C          0.40547000       0.32793000       0.39733000
    66  C          0.59453000       0.82793000       0.10267000
    67  C          0.59453000       0.67207000       0.60267000
    68  C          0.40547000       0.17207000       0.89733000
    69  H          0.27390000       0.33040000       0.39900000
    70  H          0.72610000       0.83040000       0.10100000
    71  H          0.72610000       0.66960000       0.60100000
    72  H          0.27390000       0.16960000       0.89900000
    73  Br         0.92311300       0.32622300       0.31974300
    74  Br         0.07688700       0.82622300       0.18025700
    75  Br         0.07688700       0.67377700       0.68025700
    76  Br         0.92311300       0.17377700       0.81974300
    77  N          0.97017000       0.31173000       0.59983000
    78  N          0.02983000       0.81173000       0.90017000
    79  N          0.02983000       0.68827000       0.40017000
    80  N          0.97017000       0.18827000       0.09983000
    81  H          0.93350000       0.24820000       0.58020000
    82  H          0.06650000       0.74820000       0.91980000
    83  H          0.06650000       0.75180000       0.41980000
    84  H          0.93350000       0.25180000       0.08020000
    85  C          0.04299000       0.36105000       0.55274000
    86  C          0.95701000       0.86105000       0.94726000
    87  C          0.95701000       0.63895000       0.44726000
    88  C          0.04299000       0.13895000       0.05274000
    89  H          0.05690000       0.34680000       0.50110000
    90  H          0.94310000       0.84680000      -0.00110000
    91  H          0.94310000       0.65320000       0.49890000
    92  H          0.05690000       0.15320000       0.00110000
    93  C          0.09701000       0.43155000       0.57886000
    94  C          0.90299000       0.93155000       0.92114000
    95  C          0.90299000       0.56845000       0.42114000
    96  C          0.09701000       0.06845000       0.07886000
    97  H          0.15500000       0.46470000       0.54660000
    98  H          0.84500000       0.96470000       0.95340000
    99  H          0.84500000       0.53530000       0.45340000
   100  H          0.15500000       0.03530000       0.04660000
   101  C          0.06621000       0.45364000       0.65236000
   102  C          0.93379000       0.95364000       0.84764000
   103  C          0.93379000       0.54636000       0.34764000
   104  C          0.06621000       0.04636000       0.15236000
   105  H          0.09700000       0.50300000       0.67020000
   106  H          0.90300000       0.00300000       0.82980000
   107  H          0.90300000       0.49700000       0.32980000
   108  H          0.09700000      -0.00300000       0.17020000
   109  C         -0.00929000       0.40335000       0.69914000
   110  C          0.00929000       0.90335000       0.80086000
   111  C          0.00929000       0.59665000       0.30086000
   112  C         -0.00929000       0.09665000       0.19914000
   113  H          0.97260000       0.41710000       0.75040000
   114  H          0.02740000       0.91710000       0.74960000
   115  H          0.02740000       0.58290000       0.24960000
   116  H          0.97260000       0.08290000       0.25040000
   117  C          0.94109000       0.33264000       0.67164000
   118  C          0.05891000       0.83264000       0.82836000
   119  C          0.05891000       0.66736000       0.32836000
   120  C          0.94109000       0.16736000       0.17164000
   121  H          0.88570000       0.29830000       0.70360000
   122  H          0.11430000       0.79830000       0.79640000
   123  H          0.11430000       0.70170000       0.29640000
   124  H          0.88570000       0.20170000       0.20360000
   125  N          0.87857000       0.16923000       0.54654000
   126  N          0.12143000       0.66923000       0.95346000
   127  N          0.12143000       0.83077000       0.45346000
   128  N          0.87857000       0.33077000       0.04654000
   129  C          0.83709000       0.11304000       0.59304000
   130  C          0.16291000       0.61304000       0.90696000
   131  C          0.16291000       0.88696000       0.40696000
   132  C          0.83709000       0.38696000       0.09304000
   133  H          0.84890000       0.12130000       0.64700000
   134  H          0.15110000       0.62130000       0.85300000
   135  H          0.15110000       0.87870000       0.35300000
   136  H          0.84890000       0.37870000       0.14700000
   137  C          0.77671000       0.04274000       0.56505000
   138  C          0.22329000       0.54274000       0.93495000
   139  C          0.22329000       0.95726000       0.43495000
   140  C          0.77671000       0.45726000       0.06505000
   141  H          0.74550000       0.00440000       0.59930000
   142  H          0.25450000       0.50440000       0.90070000
   143  H          0.25450000      -0.00440000       0.40070000
   144  H          0.74550000       0.49560000       0.09930000
   145  C          0.76311000       0.02955000       0.48595000
   146  C          0.23689000       0.52955000       0.01405000
   147  C          0.23689000       0.97045000       0.51405000
   148  C          0.76311000       0.47045000       0.98595000
   149  H          0.72550000       0.98180000       0.46550000
   150  H          0.27450000       0.48180000       0.03450000
   151  H          0.27450000       0.01820000       0.53450000
   152  H          0.72550000       0.51820000       0.96550000
   153  C          0.80511000       0.08675000       0.43834000
   154  C          0.19489000       0.58675000       0.06166000
   155  C          0.19489000       0.91325000       0.56166000
   156  C          0.80511000       0.41325000       0.93834000
   157  H          0.79450000       0.07950000       0.38410000
   158  H          0.20550000       0.57950000       0.11590000
   159  H          0.20550000       0.92050000       0.61590000
   160  H          0.79450000       0.42050000       0.88410000
   161  C          0.86319000       0.15534000       0.46974000
   162  C          0.13681000       0.65534000       0.03026000
   163  C          0.13681000       0.84466000       0.53026000
   164  C          0.86319000       0.34466000       0.96974000
   165  H          0.89340000       0.19430000       0.43600000
   166  H          0.10660000       0.69430000       0.06400000
   167  H          0.10660000       0.80570000       0.56400000
   168  H          0.89340000       0.30570000       0.93600000
