data_EWANEY
_symmetry_space_group_name_H-M    'P1'
_symmetry_Int_Tables_number       1
loop_
_symmetry_equiv_pos_site_id
_symmetry_equiv_pos_as_xyz
1 x,y,z
_cell_length_a                   9.56473
_cell_length_b                   8.66222
_cell_length_c                   19.96495
_cell_angle_alpha                90.0
_cell_angle_beta                 95.20981
_cell_angle_gamma                90.0
loop_
_atom_site_label
_atom_site_type_symbol
_atom_site_fract_x
_atom_site_fract_y
_atom_site_fract_z
     1  I         -0.00137800       0.04647200       0.32718200
     2  I          0.50137800       0.54647200       0.17281800
     3  I          0.00137800       0.95352800       0.67281800
     4  I          0.49862200       0.45352800       0.82718200
     5  C          0.57573000       0.80134000       0.98658120
     6  C          0.92427000       0.30134000       0.51341880
     7  C          0.42427000       0.19866000       0.01341880
     8  C          0.07573000       0.69866000       0.48658120
     9  H          0.49609000       0.75832800       0.95825400
    10  H          0.00391000       0.25832800       0.54174600
    11  H          0.50391000       0.24167200       0.04174600
    12  H         -0.00391000       0.74167200       0.45825400
    13  H          0.58071100       0.91294800       0.97910800
    14  H          0.91928900       0.41294800       0.52089200
    15  H          0.41928900       0.08705200       0.02089200
    16  H          0.08071100       0.58705200       0.47910800
    17  H          0.56320100       0.78133900       0.03397700
    18  H          0.93679900       0.28133900       0.46602300
    19  H          0.43679900       0.21866100       0.96602300
    20  H          0.06320100       0.71866100       0.53397700
    21  C          0.70764190       0.72782000       0.96901900
    22  C          0.79235810       0.22782000       0.53098100
    23  C          0.29235810       0.27218000       0.03098100
    24  C          0.20764190       0.77218000       0.46901900
    25  C          0.79082000       0.64263000       0.01195100
    26  C          0.70918000       0.14263000       0.48804900
    27  C          0.20918000       0.35737000       0.98804900
    28  C          0.29082000       0.85737000       0.51195100
    29  H          0.76656000       0.62637600       0.05650800
    30  H          0.73344000       0.12637600       0.44349200
    31  H          0.23344000       0.37362400       0.94349200
    32  H          0.26656000       0.87362400       0.55650800
    33  H          0.87417000       0.59823500      -0.00211700
    34  H          0.62583000       0.09823500       0.50211700
    35  H          0.12583000       0.40176500       0.00211700
    36  H          0.37417000       0.90176500       0.49788300
    37  C          0.74892170       0.74582000       0.89943800
    38  C          0.75107830       0.24582000       0.60056200
    39  C          0.25107830       0.25418000       0.10056200
    40  C          0.24892170       0.75418000       0.39943800
    41  C          0.68903160       0.85412000       0.79251800
    42  C          0.81096840       0.35412000       0.70748200
    43  C          0.31096840       0.14588000       0.20748200
    44  C          0.18903160       0.64588000       0.29251800
    45  H          0.66221500       0.75676700       0.76871600
    46  H          0.83778500       0.25676700       0.73128400
    47  H          0.33778500       0.24323300       0.23128400
    48  H          0.16221500       0.74323300       0.26871600
    49  H          0.79055700       0.87139000       0.78942500
    50  H          0.70944300       0.37139000       0.71057500
    51  H          0.20944300       0.12861000       0.21057500
    52  H          0.29055700       0.62861000       0.28942500
    53  C          0.60649160      -0.01368000       0.75981800
    54  C          0.89350840       0.48632000       0.74018200
    55  C          0.39350840       0.01368000       0.24018200
    56  C          0.10649160       0.51368000       0.25981800
    57  H          0.64528300       0.00941800       0.71660600
    58  H          0.85471700       0.50941800       0.78339400
    59  H          0.35471700      -0.00941800       0.28339400
    60  H          0.14528300       0.49058200       0.21660600
    61  H          0.62285900       0.07822800       0.78890400
    62  H          0.87714100       0.57822800       0.71109600
    63  H          0.37714100       0.92177200       0.21109600
    64  H          0.12285900       0.42177200       0.28890400
    65  C          0.37787180       0.96013000       0.80950900
    66  C          0.12212820       0.46013000       0.69049100
    67  C          0.62212820       0.03987000       0.19049100
    68  C          0.87787180       0.53987000       0.30950900
    69  H          0.41182500       0.87088200       0.83642900
    70  H          0.08817500       0.37088200       0.66357100
    71  H          0.58817500       0.12911800       0.16357100
    72  H          0.91182500       0.62911800       0.33642900
    73  H          0.27616000       0.95146900       0.79869400
    74  H          0.22384000       0.45146900       0.70130600
    75  H          0.72384000       0.04853100       0.20130600
    76  H          0.77616000       0.54853100       0.29869400
    77  H          0.39906400       0.05509000       0.83511600
    78  H          0.10093600       0.55509000       0.66488400
    79  H          0.60093600       0.94491000       0.16488400
    80  H          0.89906400       0.44491000       0.33511600
    81  C          0.39421180       0.10052000       0.70480100
    82  C          0.10578820       0.60052000       0.79519900
    83  C          0.60578820       0.89948000       0.29519900
    84  C          0.89421180       0.39948000       0.20480100
    85  H          0.41667600       0.19588800       0.72986900
    86  H          0.08332400       0.69588800       0.77013100
    87  H          0.58332400       0.80411200       0.27013100
    88  H          0.91667600       0.30411200       0.22986900
    89  H          0.29218100       0.09141300       0.69542600
    90  H          0.20781900       0.59141300       0.80457400
    91  H          0.70781900       0.90858700       0.30457400
    92  H          0.79218100       0.40858700       0.19542600
    93  H          0.43804800       0.10283400       0.66230600
    94  H          0.06195200       0.60283400       0.83769400
    95  H          0.56195200       0.89716600       0.33769400
    96  H          0.93804800       0.39716600       0.16230600
    97  C          0.41529180       0.82102000       0.70624900
    98  C          0.08470820       0.32102000       0.79375100
    99  C          0.58470820       0.17898000       0.29375100
   100  C          0.91529180       0.67898000       0.20624900
   101  H          0.46794900       0.82026300       0.66636700
   102  H          0.03205100       0.32026300       0.83363300
   103  H          0.53205100       0.17973700       0.33363300
   104  H          0.96794900       0.67973700       0.16636700
   105  H          0.31443300       0.81786800       0.69224200
   106  H          0.18556700       0.31786800       0.80775800
   107  H          0.68556700       0.18213200       0.30775800
   108  H          0.81443300       0.68213200       0.19224200
   109  H          0.44139100       0.73063200       0.73414900
   110  H          0.05860900       0.23063200       0.76585100
   111  H          0.55860900       0.26936800       0.26585100
   112  H          0.94139100       0.76936800       0.23414900
   113  N          0.44893140       0.96462160       0.74580700
   114  N          0.05106860       0.46462160       0.75419300
   115  N          0.55106860       0.03537840       0.25419300
   116  N          0.94893140       0.53537840       0.24580700
   117  O          0.84920130       0.68524170       0.87787700
   118  O          0.65079870       0.18524170       0.62212300
   119  O          0.15079870       0.31475830       0.12212300
   120  O          0.34920130       0.81475830       0.37787700
   121  O          0.66164120       0.84152150       0.86215600
   122  O          0.83835880       0.34152150       0.63784400
   123  O          0.33835880       0.15847850       0.13784400
   124  O          0.16164120       0.65847850       0.36215600
   125  C          0.40376170       0.39780190       0.46527800
   126  C          0.09623830       0.89780190       0.03472200
   127  C          0.59623830       0.60219810       0.53472200
   128  C          0.90376170       0.10219810       0.96527800
   129  C          0.40886170       0.41542000       0.53436800
   130  C          0.09113830       0.91542000       0.96563200
   131  C          0.59113830       0.58458000       0.46563200
   132  C          0.90886170       0.08458000       0.03436800
   133  C          0.50288180       0.51542000       0.56812800
   134  C         -0.00288180       0.01542000       0.93187200
   135  C          0.49711820       0.48458000       0.43187200
   136  C          0.00288180      -0.01542000       0.06812800
   137  F          0.32090120       0.33532140       0.57014500
   138  F          0.17909880       0.83532140       0.92985500
   139  F          0.67909880       0.66467860       0.42985500
   140  F          0.82090120       0.16467860       0.07014500
   141  F          0.50240120       0.52636140       0.63543500
   142  F         -0.00240120       0.02636140       0.86456500
   143  F          0.49759880       0.47363860       0.36456500
   144  F          0.00240120       0.97363860       0.13543500
   145  I          0.25742200       0.24923200       0.41408200
   146  I          0.24257800       0.74923200       0.08591800
   147  I          0.74257800       0.75076800       0.58591800
   148  I          0.75742200       0.25076800       0.91408200
