data_EWANIC
_symmetry_space_group_name_H-M    'P1'
_symmetry_Int_Tables_number       1
loop_
_symmetry_equiv_pos_site_id
_symmetry_equiv_pos_as_xyz
1 x,y,z
_cell_length_a                   8.42513
_cell_length_b                   9.39863
_cell_length_c                   14.47895
_cell_angle_alpha                99.34601
_cell_angle_beta                 96.21101
_cell_angle_gamma                96.91501
loop_
_atom_site_label
_atom_site_type_symbol
_atom_site_fract_x
_atom_site_fract_y
_atom_site_fract_z
     1  C          0.81815000       0.47134000       0.15132000
     2  C          0.18185000       0.52866000       0.84868000
     3  H          0.78319000       0.50562000       0.09299900
     4  H          0.21681000       0.49438000       0.90700100
     5  H          0.73593500       0.48114400       0.19395200
     6  H          0.26406500       0.51885600       0.80604800
     7  H          0.83360000       0.36881900       0.13624800
     8  H          0.16640000       0.63118100       0.86375200
     9  C          0.97206000       0.55954000       0.19752000
    10  C          0.02794000       0.44046000       0.80248000
    11  C          0.04356000       0.67325000       0.16773000
    12  C          0.95644000       0.32675000       0.83227000
    13  H         -0.00405800       0.70345600       0.11290300
    14  H          0.00405800       0.29654400       0.88709700
    15  H          0.14245200       0.72484600       0.20100400
    16  H          0.85754800       0.27515400       0.79899600
    17  C          0.04343000       0.51283000       0.28413180
    18  C          0.95657000       0.48717000       0.71586820
    19  C          0.24813000       0.56813000       0.41599180
    20  C          0.75187000       0.43187000       0.58400820
    21  H          0.36520500       0.60352400       0.42820300
    22  H          0.63479500       0.39647600       0.57179700
    23  H          0.23302900       0.46186300       0.41567500
    24  H          0.76697100       0.53813700       0.58432500
    25  C          0.16533000       0.64342000       0.49389170
    26  C          0.83467000       0.35658000       0.50610830
    27  H          0.04793000       0.62915700       0.47238500
    28  H          0.95207000       0.37084300       0.52761500
    29  H          0.18186200       0.59531000       0.54947100
    30  H          0.81813800       0.40469000       0.45052900
    31  C          0.11153000       0.86473000       0.59166190
    32  C          0.88847000       0.13527000       0.40833810
    33  H          0.15034500       0.96771600       0.61661200
    34  H          0.84965500       0.03228400       0.38338800
    35  H          0.10993600       0.81021600       0.64390500
    36  H          0.89006400       0.18978400       0.35609500
    37  H          0.00219600       0.85488200       0.55809200
    38  H         -0.00219600       0.14511800       0.44190800
    39  C          0.21093000       0.88243000       0.44223190
    40  C          0.78907000       0.11757000       0.55776810
    41  H          0.10144700       0.85915000       0.40803800
    42  H          0.89855300       0.14085000       0.59196200
    43  H          0.28818900       0.85102100       0.39991800
    44  H          0.71181100       0.14897900       0.60008200
    45  H          0.23572400      -0.01231000       0.46473600
    46  H          0.76427600       0.01231000       0.53526400
    47  C          0.39483000       0.83703000       0.57232180
    48  C          0.60517000       0.16297000       0.42767820
    49  H          0.46622200       0.80806400       0.52470200
    50  H          0.53377800       0.19193600       0.47529800
    51  H          0.42182300       0.94357700       0.59389100
    52  H          0.57817700       0.05642300       0.40610900
    53  C          0.43223000       0.76273000       0.65572000
    54  C          0.56777000       0.23727000       0.34428000
    55  H          0.41708300       0.65583000       0.63424000
    56  H          0.58291700       0.34417000       0.36576000
    57  H          0.35701400       0.78501800       0.70235600
    58  H          0.64298600       0.21498200       0.29764400
    59  C          0.60533000       0.81443000       0.70195190
    60  C          0.39467000       0.18557000       0.29804810
    61  H          0.67980400       0.78690400       0.65585200
    62  H          0.32019600       0.21309600       0.34414800
    63  H          0.62148700       0.92191100       0.71908500
    64  H          0.37851300       0.07808900       0.28091500
    65  C          0.64684000       0.75043000       0.78972000
    66  C          0.35316000       0.24957000       0.21028000
    67  H          0.64285400       0.64379900       0.77105700
    68  H          0.35714600       0.35620100       0.22894300
    69  H          0.56382000       0.76739000       0.83213800
    70  H          0.43618000       0.23261000       0.16786200
    71  C          0.81154000       0.81344000       0.84372000
    72  C          0.18846000       0.18656000       0.15628000
    73  H          0.89504800       0.79441100       0.80198400
    74  H          0.10495200       0.20558900       0.19801600
    75  H          0.81657200       0.92023400       0.86151600
    76  H          0.18342800       0.07976600       0.13848400
    77  C          0.84874000       0.75015000       0.93212000
    78  C          0.15126000       0.24985000       0.06788000
    79  H          0.76525100       0.76678800       0.97324100
    80  H          0.23474900       0.23321200       0.02675900
    81  H          0.95393200       0.79728900       0.96549300
    82  H          0.04606800       0.20271100       0.03450700
    83  H          0.85081000       0.64517900       0.91466600
    84  H          0.14919000       0.35482100       0.08533400
    85  N          0.22202000       0.80502000       0.52461150
    86  N          0.77798000       0.19498000       0.47538850
    87  O         -0.01723000       0.41162000       0.31597150
    88  O          0.01723000       0.58838000       0.68402850
    89  O          0.18382000       0.59552000       0.32488130
    90  O          0.81618000       0.40448000       0.67511870
    91  C          0.38954000       0.89733000       0.02312000
    92  C          0.61046000       0.10267000       0.97688000
    93  C          0.53723000       0.93123000       0.07815170
    94  C          0.46277000       0.06877000       0.92184830
    95  C          0.64723000       0.03523000       0.05332000
    96  C          0.35277000       0.96477000       0.94668000
    97  F          0.27553000       0.79962000       0.04357150
    98  F          0.72447000       0.20038000       0.95642850
    99  F          0.79433000       0.07273000       0.10392160
   100  F          0.20567000       0.92727000       0.89607840
   101  I          0.59465200       0.83182200       0.19456200
   102  I          0.40534800       0.16817800       0.80543800
   103  I          0.71006200       0.70787200       0.40059200
   104  I          0.28993800       0.29212800       0.59940800
