data_EWELIE
_symmetry_space_group_name_H-M    'P1'
_symmetry_Int_Tables_number       1
loop_
_symmetry_equiv_pos_site_id
_symmetry_equiv_pos_as_xyz
1 x,y,z
_cell_length_a                   7.948601
_cell_length_b                   9.71492
_cell_length_c                   18.00714
_cell_angle_alpha                75.7102
_cell_angle_beta                 77.3142
_cell_angle_gamma                78.86301
loop_
_atom_site_label
_atom_site_type_symbol
_atom_site_fract_x
_atom_site_fract_y
_atom_site_fract_z
     1  I          0.01092300       0.06151300       0.58621200
     2  I          0.98907700       0.93848700       0.41378800
     3  I          0.06965300       0.22302300       0.68831200
     4  I          0.93034700       0.77697700       0.31168800
     5  I          0.12508300       0.39778300       0.79536200
     6  I          0.87491700       0.60221700       0.20463800
     7  S          0.53366120       0.28379110       0.64211600
     8  S          0.46633880       0.71620890       0.35788400
     9  S          0.30040130       0.78813130       0.84140700
    10  S          0.69959870       0.21186870       0.15859300
    11  N          0.77124000       0.47773000       0.51121180
    12  N          0.22876000       0.52227000       0.48878820
    13  N          0.63374000       0.60793000       0.80162180
    14  N          0.36626000       0.39207000       0.19837820
    15  C          0.74284000       0.49624000       0.58302000
    16  C          0.25716000       0.50376000       0.41698000
    17  C          0.81795000       0.60884000       0.59582000
    18  C          0.18205000       0.39116000       0.40418000
    19  H          0.89179900       0.66019800       0.55356000
    20  H          0.10820100       0.33980200       0.44644000
    21  C          0.78695000       0.64484000       0.66692000
    22  C          0.21305000       0.35516000       0.33308000
    23  H          0.83772300       0.72104800       0.67329800
    24  H          0.16227700       0.27895200       0.32670200
    25  C          0.67714000       0.56714000       0.73222000
    26  C          0.32286000       0.43286000       0.26778000
    27  C          0.60854000       0.45044000       0.72272000
    28  C          0.39146000       0.54956000       0.27728000
    29  H          0.54251500       0.39455000       0.76613100
    30  H          0.45748500       0.60545000       0.23386900
    31  C          0.63704000       0.41734000       0.65042000
    32  C          0.36296000       0.58266000       0.34958000
    33  C          0.58405000       0.28674000       0.54372000
    34  C          0.41595000       0.71326000       0.45628000
    35  C          0.50995000       0.19364000       0.51632000
    36  C          0.49005000       0.80636000       0.48368000
    37  H          0.43342600       0.13268300       0.55115800
    38  H          0.56657400       0.86731700       0.44884200
    39  C          0.54935000       0.19164000       0.43842000
    40  C          0.45065000       0.80836000       0.56158000
    41  H          0.49895500       0.12864200       0.41968700
    42  H          0.50104500       0.87135800       0.58031300
    43  C          0.66095000       0.27944000       0.38632000
    44  C          0.33905000       0.72056000       0.61368000
    45  H          0.68800100       0.27456100       0.33288500
    46  H          0.31199900       0.72543900       0.66711500
    47  C          0.73205000       0.37274000       0.41182000
    48  C          0.26795000       0.62726000       0.58818000
    49  H          0.80664500       0.43368000       0.37562400
    50  H          0.19335500       0.56632000       0.62437600
    51  C          0.69525000       0.37934000       0.49162000
    52  C          0.30475000       0.62066000       0.50838000
    53  C          0.65745000       0.74654000       0.81042000
    54  C          0.34255000       0.25346000       0.18958000
    55  C          0.82155000       0.78234000       0.80602000
    56  C          0.17845000       0.21766000       0.19398000
    57  H          0.92365300       0.71525100       0.79662500
    58  H          0.07634700       0.28474900       0.20337500
    59  C          0.83335000       0.91634000       0.81552000
    60  C          0.16665000       0.08366000       0.18448000
    61  H          0.94453000       0.94153200       0.81274300
    62  H          0.05547000       0.05846800       0.18725700
    63  C          0.68525000       0.01434000       0.82902000
    64  C          0.31475000       0.98566000       0.17098000
    65  H          0.69587800       0.10741800       0.83358500
    66  H          0.30412200       0.89258200       0.16641500
    67  C          0.52115000       0.97835000       0.83602000
    68  C          0.47885000       0.02165000       0.16398000
    69  H          0.41961200       0.04560000       0.84633100
    70  H          0.58038800       0.95440000       0.15366900
    71  C          0.50675000       0.84244000       0.82782000
    72  C          0.49325000       0.15756000       0.17218000
    73  C          0.35505000       0.60895000       0.88872000
    74  C          0.64495000       0.39105000       0.11128000
    75  C          0.24056000       0.53906000       0.95053000
    76  C          0.75944000       0.46094000       0.04947000
    77  H          0.12876000       0.58811900       0.96784300
    78  H          0.87124000       0.41188100       0.03215700
    79  C          0.28947000       0.39916000       0.98613000
    80  C          0.71053000       0.60084000       0.01387000
    81  H          0.20898300       0.35119300       0.02678500
    82  H          0.79101700       0.64880700       0.97321500
    83  C          0.45387000       0.32655000       0.96392000
    84  C          0.54613000       0.67345000       0.03608000
    85  H          0.48594700       0.23031700       0.99003200
    86  H          0.51405300       0.76968300       0.00996800
    87  C          0.57156000       0.39415000       0.90372000
    88  C          0.42844000       0.60585000       0.09628000
    89  H          0.68546200       0.34593800       0.88868200
    90  H          0.31453800       0.65406200       0.11131800
    91  C          0.51945000       0.53305000       0.86592000
    92  C          0.48055000       0.46695000       0.13408000
    93  I          0.03310300       0.12066300       0.94395200
    94  I          0.96689700       0.87933700       0.05604800
