data_EWEMAX
_symmetry_space_group_name_H-M    'P1'
_symmetry_Int_Tables_number       1
loop_
_symmetry_equiv_pos_site_id
_symmetry_equiv_pos_as_xyz
1 x,y,z
_cell_length_a                   12.915801
_cell_length_b                   13.355601
_cell_length_c                   14.824601
_cell_angle_alpha                97.25801
_cell_angle_beta                 107.39201
_cell_angle_gamma                110.19701
loop_
_atom_site_label
_atom_site_type_symbol
_atom_site_fract_x
_atom_site_fract_y
_atom_site_fract_z
     1  O          0.70093000       0.76873000       0.50283000
     2  O          0.29907000       0.23127000       0.49717000
     3  C          0.65315000       0.82135000       0.55624000
     4  C          0.34685000       0.17865000       0.44376000
     5  H          0.71958800       0.87937100       0.61226800
     6  H          0.28041200       0.12062900       0.38773200
     7  H          0.61244100       0.85869800       0.51401000
     8  H          0.38755900       0.14130200       0.48599000
     9  C          0.57666000       0.75785000       0.59075000
    10  C          0.42334000       0.24215000       0.40925000
    11  H          0.50064000       0.76652700       0.56917600
    12  H          0.49936000       0.23347300       0.43082400
    13  H          0.60992300       0.77633800       0.66304100
    14  H          0.39007700       0.22366200       0.33695900
    15  C          0.55966000       0.64275000       0.54765000
    16  C          0.44034000       0.35725000       0.45235000
    17  H          0.49117000       0.60929800       0.48467000
    18  H          0.50883000       0.39070200       0.51533000
    19  H          0.54567900       0.59551100       0.59288700
    20  H          0.45432100       0.40448900       0.40711300
    21  C          0.68265000       0.65615000       0.53124000
    22  C          0.31735000       0.34385000       0.46876000
    23  H          0.74667500       0.66295100       0.59166300
    24  H          0.25332500       0.33704900       0.40833700
    25  H          0.67141900       0.59663600       0.47738100
    26  H          0.32858100       0.40336400       0.52261900
    27  S          0.86817100       0.91913100       0.10284900
    28  S          0.13182900       0.08086900       0.89715100
    29  N          0.66833000       0.78073000       0.16603000
    30  N          0.33167000       0.21927000       0.83397000
    31  C          0.74054000       0.73274000       0.14833000
    32  C          0.25946000       0.26726000       0.85167000
    33  C          0.72084000       0.62544000       0.15953000
    34  C          0.27916000       0.37456000       0.84047000
    35  H          0.65811600       0.58741300       0.17974900
    36  H          0.34188400       0.41258700       0.82025100
    37  C          0.79144000       0.57584000       0.14143000
    38  C          0.20856000       0.42416000       0.85857000
    39  H          0.77740900       0.50357900       0.14967900
    40  H          0.22259100       0.49642100       0.85032100
    41  C          0.88424000       0.62934000       0.11074000
    42  C          0.11576000       0.37066000       0.88926000
    43  H          0.93294300       0.59356900       0.09931700
    44  H          0.06705700       0.40643100       0.90068300
    45  C          0.90454000       0.73284000       0.09723000
    46  C          0.09546000       0.26716000       0.90277000
    47  H          0.96596100       0.76838200       0.07482500
    48  H          0.03403900       0.23161800       0.92517500
    49  C          0.83374000       0.78674000       0.11653000
    50  C          0.16626000       0.21326000       0.88347000
    51  C          0.75314000       0.94904000       0.11653000
    52  C          0.24686000       0.05096000       0.88347000
    53  C          0.74674000       0.04704000       0.09624000
    54  C          0.25326000       0.95296000       0.90376000
    55  H          0.80324200       0.09321200       0.07420700
    56  H          0.19675800       0.90678800       0.92579300
    57  C          0.65805000       0.07594000       0.10844000
    58  C          0.34195000       0.92406000       0.89156000
    59  H          0.65349800       0.14232100       0.09498500
    60  H          0.34650200       0.85767900       0.90501500
    61  C          0.57464000       0.00744000       0.14064000
    62  C          0.42536000      -0.00744000       0.85936000
    63  H          0.51378100       0.02796400       0.14859000
    64  H          0.48621900       0.97203600       0.85141000
    65  C          0.57914000       0.91194000       0.16054000
    66  C          0.42086000       0.08806000       0.83946000
    67  H          0.52184700       0.86672400       0.18244100
    68  H          0.47815300       0.13327600       0.81755900
    69  C          0.66794000       0.88004000       0.14883000
    70  C          0.33206000       0.11996000       0.85117000
    71  H          0.61030000       0.74030000       0.17740000
    72  H          0.38970000       0.25970000       0.82260000
    73  I          0.50822300       0.70004300       0.90536300
    74  I          0.49177700       0.29995700       0.09463700
    75  I          0.35097300       0.62283300       0.70477200
    76  I          0.64902700       0.37716700       0.29522800
    77  I          0.19585400       0.55457300       0.49448300
    78  I          0.80414600       0.44542700       0.50551700
    79  S          0.02215110       0.01391100       0.31771900
    80  S          0.97784890      -0.01391100       0.68228100
    81  N          0.83284000       0.88243000       0.39583000
    82  N          0.16716000       0.11757000       0.60417000
    83  C          0.90994000       0.83644000       0.38203000
    84  C          0.09006000       0.16356000       0.61797000
    85  C          0.89824000       0.73384000       0.40384000
    86  C          0.10176000       0.26616000       0.59616000
    87  H          0.83847200       0.69763000       0.42763000
    88  H          0.16152800       0.30237000       0.57237000
    89  C          0.97315000       0.68665000       0.39044000
    90  C          0.02685000       0.31335000       0.60956000
    91  H          0.96465700       0.61755100       0.40478900
    92  H          0.03534300       0.38244900       0.59521100
    93  C          0.06214000       0.73934000       0.35564000
    94  C          0.93786000       0.26066000       0.64436000
    95  H          0.11359000       0.70575400       0.34661100
    96  H          0.88641000       0.29424600       0.65338900
    97  C          0.07504000       0.83834000       0.33464000
    98  C          0.92496000       0.16166000       0.66536000
    99  H          0.13565700       0.87361900       0.31139500
   100  H          0.86434300       0.12638100       0.68860500
   101  C         -0.00066000       0.88884000       0.34703000
   102  C          0.00066000       0.11116000       0.65297000
   103  C          0.91994000       0.05214000       0.34964000
   104  C          0.08006000       0.94786000       0.65036000
   105  C          0.92205000       0.15584000       0.33844000
   106  C          0.07795000       0.84416000       0.66156000
   107  H          0.97743000       0.20087500       0.31484300
   108  H          0.02257000       0.79912500       0.68515700
   109  C          0.84285000       0.19125000       0.36194000
   110  C          0.15715000       0.80875000       0.63806000
   111  H          0.84380000       0.26114300       0.35450300
   112  H          0.15620000       0.73885700       0.64549700
   113  C          0.76175000       0.12595000       0.39624000
   114  C          0.23825000       0.87405000       0.60376000
   115  H          0.70784600       0.15155700       0.41240400
   116  H          0.29215400       0.84844300       0.58759600
   117  C          0.75825000       0.02405000       0.40724000
   118  C          0.24175000       0.97595000       0.59276000
   119  H          0.70188700       0.98002400       0.43064900
   120  H          0.29811300       0.01997600       0.56935100
   121  C          0.83724000       0.98484000       0.38413000
   122  C          0.16276000       0.01516000       0.61587000
   123  H          0.78340000       0.84840000       0.42040000
   124  H          0.21660000       0.15160000       0.57960000
   125  O          0.47373000       0.65153000       0.19323000
   126  O          0.52627000       0.34847000       0.80677000
   127  C          0.45655000       0.62445000       0.27974000
   128  C          0.54345000       0.37555000       0.72026000
   129  H          0.42967600       0.67586600       0.31052800
   130  H          0.57032400       0.32413400       0.68947200
   131  H          0.53143400       0.62920300       0.32759000
   132  H          0.46856600       0.37079700       0.67241000
   133  C          0.36415000       0.50935000       0.24814000
   134  C          0.63585000       0.49065000       0.75186000
   135  H          0.31781100       0.49704500       0.29119000
   136  H          0.68218900       0.50295500       0.70881000
   137  H          0.39977000       0.45453400       0.24705500
   138  H          0.60023000       0.54546600       0.75294500
   139  C          0.28795000       0.50365000       0.14584000
   140  C          0.71205000       0.49635000       0.85416000
   141  H          0.24485700       0.42654100       0.10513700
   142  H          0.75514300       0.57345900       0.89486300
   143  H          0.22991600       0.53589800       0.14761800
   144  H          0.77008400       0.46410200       0.85238200
   145  C          0.37775000       0.57154000       0.10764000
   146  C          0.62225000       0.42846000       0.89236000
   147  H          0.40635500       0.52423100       0.07368700
   148  H          0.59364500       0.47576900       0.92631300
   149  H          0.34252100       0.60875300       0.06144900
   150  H          0.65747900       0.39124700       0.93855100
   151  I          0.03045300       0.43414300       0.25671300
   152  I          0.96954700       0.56585700       0.74328700
   153  I          0.90022700       0.33666300       0.05896200
   154  I          0.09977300       0.66333700       0.94103800
   155  I          0.74143700       0.19369300       0.83022800
   156  I          0.25856300       0.80630700       0.16977200
   157  I          0.80249700      -0.01048300       0.84656800
   158  I          0.19750300       0.01048300       0.15343200
   159  I          0.86964700       0.81156700       0.84810700
   160  I          0.13035300       0.18843300       0.15189300
   161  I          0.57037700       0.06120300       0.59649700
   162  I          0.42962300       0.93879700       0.40350300
