data_EWERUV
_symmetry_space_group_name_H-M    'P1'
_symmetry_Int_Tables_number       1
loop_
_symmetry_equiv_pos_site_id
_symmetry_equiv_pos_as_xyz
1 x,y,z
_cell_length_a                   11.01498
_cell_length_b                   11.83598
_cell_length_c                   12.85109
_cell_angle_alpha                88.4443
_cell_angle_beta                 78.9123
_cell_angle_gamma                84.1743
loop_
_atom_site_label
_atom_site_type_symbol
_atom_site_fract_x
_atom_site_fract_y
_atom_site_fract_z
     1  S          0.47784300       0.56497300       0.75575300
     2  S          0.52215700       0.43502700       0.24424700
     3  O          0.58290100       0.52196100       0.80294800
     4  O          0.41709900       0.47803900       0.19705200
     5  O          0.42974100       0.67989900       0.78660800
     6  O          0.57025900       0.32010100       0.21339200
     7  O          0.38635100       0.48657900       0.75776800
     8  O          0.61364900       0.51342100       0.24223200
     9  O          0.39169120       0.83314100       0.56054100
    10  O          0.60830880       0.16685900       0.43945900
    11  O          0.30407110       0.67986100       0.61133900
    12  O          0.69592890       0.32013900       0.38866100
    13  O          0.74447130       0.73313100       0.26943900
    14  O          0.25552870       0.26686900       0.73056100
    15  O          0.87543110       0.59004110       0.29278900
    16  O          0.12456890       0.40995890       0.70721100
    17  O          0.81050110       0.41884110       0.66413900
    18  O          0.18949890       0.58115890       0.33586100
    19  O          0.64813120       0.33543100       0.64756900
    20  O          0.35186880       0.66456900       0.35243100
    21  N          0.39443130       0.73094110       0.57695100
    22  N          0.60556870       0.26905890       0.42304900
    23  N          0.77847130       0.65127120       0.31979100
    24  N          0.22152870       0.34872880       0.68020900
    25  N          0.71082130       0.41651120       0.63605100
    26  N          0.28917870       0.58348880       0.36394900
    27  C          0.55279140       0.57901120       0.61729110
    28  C          0.44720860       0.42098880       0.38270890
    29  C          0.51581140       0.66303120       0.54899110
    30  C          0.48418860       0.33696880       0.45100890
    31  C          0.58688150       0.68907130       0.45218120
    32  C          0.41311850       0.31092870       0.54781880
    33  H          0.55960000       0.74900000       0.40890000
    34  H          0.44040000       0.25100000       0.59110000
    35  C          0.69819140       0.62506130       0.42116110
    36  C          0.30180860       0.37493870       0.57883890
    37  C          0.73913150       0.53679130       0.48132120
    38  C          0.26086850       0.46320870       0.51867880
    39  H          0.81570000       0.49220000       0.45750000
    40  H          0.18430000       0.50780000       0.54250000
    41  C          0.66502140       0.51536130       0.57741110
    42  C          0.33497860       0.48463870       0.42258890
    43  O          0.64138900       0.45802900      -0.00525100
    44  O          0.35861100       0.54197100       0.00525100
    45  H          0.61920000       0.48421900       0.94131800
    46  H          0.38080000       0.51578100       0.05868200
    47  O          0.87329100       0.61936900       0.94741900
    48  O          0.12670900       0.38063100       0.05258100
    49  N          0.78226120       0.27315100       0.02746900
    50  N          0.21773880       0.72684900       0.97253100
    51  H          0.70141700       0.28751300       0.04481300
    52  H          0.29858300       0.71248700       0.95518700
    53  C          0.81511140       0.24167120       0.91108110
    54  C          0.18488860       0.75832880       0.08891890
    55  H          0.79150000       0.31030000       0.86960000
    56  H          0.20850000       0.68970000       0.13040000
    57  C          0.73241150       0.14953130       0.89316120
    58  C          0.26758850       0.85046870       0.10683880
    59  C          0.73577140       0.05453130       0.97560120
    60  C          0.26422860       0.94546870       0.02439880
    61  C          0.76963130       0.06855120       0.06842120
    62  C          0.23036870       0.93144880       0.93157880
    63  C          0.81285130       0.17674120       0.10133110
    64  C          0.18714870       0.82325880       0.89866890
    65  H          0.76120000       0.19620000       0.17260000
    66  H          0.23880000       0.80380000       0.82740000
    67  C          0.82254140       0.38416120       0.05460110
    68  C          0.17745860       0.61583880       0.94539890
    69  H          0.91420000       0.38190000       0.03490000
    70  H          0.08580000       0.61810000       0.96510000
    71  H          0.79840000       0.39640000       0.13200000
    72  H          0.20160000       0.60360000       0.86800000
    73  C          0.76295140       0.48223120      -0.00379890
    74  C          0.23704860       0.51776880       0.00379890
    75  C          0.77963150       0.59785130       0.03971120
    76  C          0.22036850       0.40214870       0.96028880
    77  H          0.70410000       0.65220000       0.04690000
    78  H          0.29590000       0.34780000       0.95310000
    79  H          0.81190000       0.59220000       0.10660000
    80  H          0.18810000       0.40780000       0.89340000
    81  C          0.84361150       0.52351130       0.89281120
    82  C          0.15638850       0.47648870       0.10718880
    83  H          0.91690000       0.46970000       0.86530000
    84  H          0.08310000       0.53030000       0.13470000
    85  H          0.79570000       0.54560000       0.83650000
    86  H          0.20430000       0.45440000       0.16350000
    87  C          0.95387150       0.21073140       0.87497130
    88  C          0.04612850       0.78926860       0.12502870
    89  H         -0.00040000       0.26770000       0.90050000
    90  H          0.00040000       0.73230000       0.09950000
    91  H          0.97400000       0.20850000       0.79730000
    92  H          0.02600000       0.79150000       0.20270000
    93  H          0.97750000       0.13600000       0.90380000
    94  H          0.02250000       0.86400000       0.09620000
    95  C          0.59722160       0.20370140       0.90194140
    96  C          0.40277840       0.79629860       0.09805860
    97  H          0.56720000       0.23520000       0.97300000
    98  H          0.43280000       0.76480000       0.02700000
    99  H          0.54430000       0.14570000       0.88940000
   100  H          0.45570000       0.85430000       0.11060000
   101  H          0.59440000       0.26460000       0.84900000
   102  H          0.40560000       0.73540000       0.15100000
   103  C          0.77753190       0.10480150       0.77953130
   104  C          0.22246810       0.89519850       0.22046870
   105  H          0.78680000       0.16900000       0.72980000
   106  H          0.21320000       0.83100000       0.27020000
   107  H          0.71670000       0.05750000       0.76140000
   108  H          0.28330000       0.94250000       0.23860000
   109  H          0.85790000       0.05940000       0.77500000
   110  H          0.14210000       0.94060000       0.22500000
   111  C          0.69064170       0.94462860       0.94778140
   112  C          0.30935830       0.05537140       0.05221860
   113  H          0.75190000       0.90690000       0.89060000
   114  H          0.24810000       0.09310000       0.10940000
   115  H          0.61110000       0.96100000       0.92440000
   116  H          0.38890000       0.03900000       0.07560000
   117  H          0.67970000       0.89480000       0.01030000
   118  H          0.32030000       0.10520000      -0.01030000
   119  C          0.75932140       0.98091870       0.15714130
   120  C          0.24067860       0.01908130       0.84285870
   121  H          0.82410000      -0.01110000       0.19950000
   122  H          0.17590000       0.01110000       0.80050000
   123  H          0.77390000       0.90380000       0.12640000
   124  H          0.22610000       0.09620000       0.87360000
   125  C          0.63133150      -0.00469140       0.22914130
   126  C          0.36866850       0.00469140       0.77085870
   127  H          0.56790000       0.97990000       0.18890000
   128  H          0.43210000       0.02010000       0.81110000
   129  H          0.61450000       0.07320000       0.25580000
   130  H          0.38550000       0.92680000       0.74420000
   131  H          0.62950000       0.94200000       0.28900000
   132  H          0.37050000       0.05800000       0.71100000
   133  C          0.94973140       0.16324130       0.11651120
   134  C          0.05026860       0.83675870       0.88348880
   135  H          0.98650000       0.08510000       0.09710000
   136  H          0.01350000       0.91490000       0.90290000
   137  H         -0.00270000       0.21650000       0.06800000
   138  H          0.00270000       0.78350000       0.93200000
   139  C          0.96195180       0.18602190       0.22940150
   140  C          0.03804820       0.81397810       0.77059850
   141  H          0.04960000       0.17300000       0.23570000
   142  H          0.95040000       0.82700000       0.76430000
   143  H          0.91340000       0.13480000       0.27800000
   144  H          0.08660000       0.86520000       0.72200000
   145  H          0.93080000       0.26490000       0.24750000
   146  H          0.06920000       0.73510000       0.75250000
   147  C          0.98529190       0.67194190       0.54820180
   148  C          0.01470810       0.32805810       0.45179820
   149  H         -0.00510000       0.63250000       0.48060000
   150  H          0.00510000       0.36750000       0.51940000
   151  H          0.96840000       0.61760000       0.60680000
   152  H          0.03160000       0.38240000       0.39320000
   153  H          0.06190000       0.70610000       0.55140000
   154  H          0.93810000       0.29390000       0.44860000
   155  C          0.87924170       0.76312160       0.55705150
   156  C          0.12075830       0.23687840       0.44294850
   157  C          0.87832190       0.85054180       0.48355160
   158  C          0.12167810       0.14945820       0.51644840
   159  H          0.94760000       0.85400000       0.42700000
   160  H          0.05240000       0.14600000       0.57300000
   161  C          0.77912000       0.93294170       0.49034170
   162  C          0.22088000       0.06705830       0.50965830
   163  H          0.78050000      -0.00830000       0.43840000
   164  H          0.21950000       0.00830000       0.56160000
   165  C          0.67844180       0.93036160       0.57187160
   166  C          0.32155820       0.06963840       0.42812840
   167  H          0.60990000       0.98680000       0.57650000
   168  H          0.39010000       0.01320000       0.42350000
   169  C          0.67819170       0.84498150       0.64680140
   170  C          0.32180830       0.15501850       0.35319860
   171  H          0.60920000       0.84310000       0.70380000
   172  H          0.39080000       0.15690000       0.29620000
   173  C          0.77712160       0.76183150       0.64012140
   174  C          0.22287840       0.23816850       0.35987860
   175  H          0.77550000       0.70350000       0.69250000
   176  H          0.22450000       0.29650000       0.30750000
