data_EWOXEV
_symmetry_space_group_name_H-M    'P1'
_symmetry_Int_Tables_number       1
loop_
_symmetry_equiv_pos_site_id
_symmetry_equiv_pos_as_xyz
1 x,y,z
_cell_length_a                   4.115301
_cell_length_b                   12.52783
_cell_length_c                   20.75716
_cell_angle_alpha                79.57501
_cell_angle_beta                 89.12801
_cell_angle_gamma                84.79901
loop_
_atom_site_label
_atom_site_type_symbol
_atom_site_fract_x
_atom_site_fract_y
_atom_site_fract_z
     1  C          0.64077000       0.98308000       0.41081130
     2  C          0.35923000       0.01692000       0.58918870
     3  H          0.69680000       0.92370000       0.44380000
     4  H          0.30320000       0.07630000       0.55620000
     5  C          0.70437000       0.08432000       0.42090140
     6  C          0.29563000       0.91568000       0.57909860
     7  H          0.80120000       0.09330000       0.45950000
     8  H          0.19880000       0.90670000       0.54050000
     9  C          0.62068000       0.17232000       0.37219150
    10  C          0.37932000       0.82768000       0.62780850
    11  H          0.65860000       0.24230000       0.37750000
    12  H          0.34140000       0.75770000       0.62250000
    13  C          0.48078000       0.15562000       0.31573140
    14  C          0.51922000       0.84438000       0.68426860
    15  H          0.42410000       0.21400000       0.28210000
    16  H          0.57590000       0.78600000       0.71790000
    17  C          0.42446000       0.04992000       0.30942120
    18  C          0.57554000       0.95008000       0.69057880
    19  C          0.27456000       0.03039180       0.24835110
    20  C          0.72544000       0.96960820       0.75164890
    21  C          0.26826000       0.92562820       0.23505110
    22  C          0.73174000       0.07437180       0.76494890
    23  H          0.35700000       0.86610000       0.26490000
    24  H          0.64300000       0.13390000       0.73510000
    25  C          0.12976000       0.90972810       0.17726110
    26  C          0.87024000       0.09027190       0.82273890
    27  C         -0.00046000       0.00272000       0.13494130
    28  C          0.00046000      -0.00272000       0.86505870
    29  H          0.90250000      -0.00310000       0.09570000
    30  H          0.09750000       0.00310000       0.90430000
    31  C          0.01697000       0.10282000       0.15189140
    32  C         -0.01697000       0.89718000       0.84810860
    33  H          0.92780000       0.16370000       0.12300000
    34  H          0.07220000       0.83630000       0.87700000
    35  C          0.10516000       0.79748000       0.16446120
    36  C          0.89484000       0.20252000       0.83553880
    37  C          0.21665000       0.76375810       0.10419110
    38  C          0.78335000       0.23624190       0.89580890
    39  C          0.37567000       0.83308000       0.05577130
    40  C          0.62433000       0.16692000       0.94422870
    41  H          0.41010000       0.90280000       0.06210000
    42  H          0.58990000       0.09720000       0.93790000
    43  C          0.48237000       0.79897000      -0.00151140
    44  C          0.51763000       0.20103000       0.00151140
    45  H          0.58890000       0.84580000       0.96690000
    46  H          0.41110000       0.15420000       0.03310000
    47  C          0.43168000       0.69697000       0.98829850
    48  C          0.56832000       0.30303000       0.01170150
    49  H          0.50000000       0.67530000       0.94940000
    50  H          0.50000000       0.32470000       0.05060000
    51  C          0.28047000       0.62647000       0.03510140
    52  C          0.71953000       0.37353000       0.96489860
    53  H          0.24950000       0.55720000       0.02760000
    54  H          0.75050000       0.44280000       0.97240000
    55  C          0.17226000       0.65698000       0.09377130
    56  C          0.82774000       0.34302000       0.90622870
    57  C          0.01786000       0.58188000       0.14519140
    58  C         -0.01786000       0.41812000       0.85480860
    59  C          0.96332000       0.47458000       0.13930170
    60  C          0.03668000       0.52542000       0.86069830
    61  H          0.02340000       0.44950000       0.10090000
    62  H         -0.02340000       0.55050000       0.89910000
    63  C          0.82369000       0.40657000       0.18912000
    64  C          0.17631000       0.59343000       0.81088000
    65  H          0.79630000       0.33550000       0.18460000
    66  H          0.20370000       0.66450000       0.81540000
    67  C          0.72341000       0.44237000       0.24559190
    68  C          0.27659000       0.55763000       0.75440810
    69  H          0.62290000       0.39650000       0.27870000
    70  H          0.37710000       0.60350000       0.72130000
    71  C          0.77303000       0.54608000       0.25278150
    72  C          0.22697000       0.45392000       0.74721850
    73  H          0.70740000       0.57020000       0.29120000
    74  H          0.29260000       0.42980000       0.70880000
    75  C          0.92034000       0.61628000       0.20345130
    76  C          0.07966000       0.38372000       0.79654870
    77  C          0.96884000       0.72448000       0.21170130
    78  C          0.03116000       0.27552000       0.78829870
    79  H          0.90500000       0.74610000       0.25090000
    80  H          0.09500000       0.25390000       0.74910000
    81  N          0.15256000       0.11916160       0.20689110
    82  N          0.84744000       0.88083840       0.79310890
    83  N          0.50265000       0.96435830       0.35635100
    84  N          0.49735000       0.03564170       0.64364900
    85  C          0.15896000       0.49508000       0.44247110
    86  C          0.84104000       0.50492000       0.55752890
    87  C          0.11756000       0.59441810       0.46273110
    88  C          0.88244000       0.40558190       0.53726890
    89  C          0.95664000       0.59668000       0.52154120
    90  C          0.04336000       0.40332000       0.47845880
    91  F          0.31795000       0.48641860       0.38646800
    92  F          0.68205000       0.51358140       0.61353200
    93  F          0.90405000       0.69045870       0.54402800
    94  F          0.09595000       0.30954130       0.45597200
    95  I          0.27780400       0.73655800       0.40793200
    96  I          0.72219600       0.26344200       0.59206800
