data_EWUYOL
_symmetry_space_group_name_H-M    'P1'
_symmetry_Int_Tables_number       1
loop_
_symmetry_equiv_pos_site_id
_symmetry_equiv_pos_as_xyz
1 x,y,z
_cell_length_a                   7.63752
_cell_length_b                   9.34822
_cell_length_c                   23.72987
_cell_angle_alpha                90.0
_cell_angle_beta                 90.0
_cell_angle_gamma                90.0
loop_
_atom_site_label
_atom_site_type_symbol
_atom_site_fract_x
_atom_site_fract_y
_atom_site_fract_z
     1  C          0.89524000       0.51173000       0.65851120
     2  C          0.39524000       0.48827000       0.34148880
     3  C          0.89524000       0.48827000       0.15851120
     4  C          0.39524000       0.51173000       0.84148880
     5  C          0.02175000       0.15404000       0.63936170
     6  C          0.52175000       0.84596000       0.36063830
     7  C          0.02175000       0.84596000       0.13936170
     8  C          0.52175000       0.15404000       0.86063830
     9  C          0.01936000       0.04514000       0.67778180
    10  C          0.51936000       0.95486000       0.32221820
    11  C          0.01936000       0.95486000       0.17778180
    12  C          0.51936000       0.04514000       0.82221820
    13  C          0.96376000       0.06884000       0.73212170
    14  C          0.46376000       0.93116000       0.26787830
    15  C          0.96376000       0.93116000       0.23212170
    16  C          0.46376000       0.06884000       0.76787830
    17  C          0.91226000       0.20273000       0.75132150
    18  C          0.41226000       0.79727000       0.24867850
    19  C          0.91226000       0.79727000       0.25132150
    20  C          0.41226000       0.20273000       0.74867850
    21  C          0.92075000       0.31453000       0.71226130
    22  C          0.42075000       0.68547000       0.28773870
    23  C          0.92075000       0.68547000       0.21226130
    24  C          0.42075000       0.31453000       0.78773870
    25  C          0.96944000       0.28933000       0.65689140
    26  C          0.46944000       0.71067000       0.34310860
    27  C          0.96944000       0.71067000       0.15689140
    28  C          0.46944000       0.28933000       0.84310860
    29  C          0.84574000       0.54683000       0.76215130
    30  C          0.34574000       0.45317000       0.23784870
    31  C          0.84574000       0.45317000       0.26215130
    32  C          0.34574000       0.54683000       0.73784870
    33  C          0.87707000       0.60365000       0.87606170
    34  C          0.37707000       0.39635000       0.12393830
    35  C          0.87707000       0.39635000       0.37606170
    36  C          0.37707000       0.60365000       0.62393830
    37  H          0.05250000       0.13740000       0.60201800
    38  H          0.55250000       0.86260000       0.39798200
    39  H          0.05250000       0.86260000       0.10201800
    40  H          0.55250000       0.13740000       0.89798200
    41  H          0.05250000       0.94960000       0.66561700
    42  H          0.55250000       0.05040000       0.33438300
    43  H          0.05250000       0.05040000       0.16561700
    44  H          0.55250000       0.94960000       0.83438300
    45  H          0.96160000      -0.00640000       0.75731700
    46  H          0.46160000       0.00640000       0.24268300
    47  H          0.96160000       0.00640000       0.25731700
    48  H          0.46160000      -0.00640000       0.74268300
    49  H          0.87350000       0.22140000       0.78801700
    50  H          0.37350000       0.77860000       0.21198300
    51  H          0.87350000       0.77860000       0.28801700
    52  H          0.37350000       0.22140000       0.71198300
    53  H          0.82050000       0.70940000       0.66481800
    54  H          0.32050000       0.29060000       0.33518200
    55  H          0.82050000       0.29060000       0.16481800
    56  H          0.32050000       0.70940000       0.83518200
    57  H          0.88250000       0.66740000       0.60831800
    58  H          0.38250000       0.33260000       0.39168200
    59  H          0.88250000       0.33260000       0.10831800
    60  H          0.38250000       0.66740000       0.89168200
    61  H          0.95370000       0.68050000       0.86820000
    62  H          0.45370000       0.31950000       0.13180000
    63  H          0.95370000       0.31950000       0.36820000
    64  H          0.45370000       0.68050000       0.63180000
    65  H          0.76480000       0.63360000       0.87820000
    66  H          0.26480000       0.36640000       0.12180000
    67  H          0.76480000       0.36640000       0.37820000
    68  H          0.26480000       0.63360000       0.62180000
    69  H          0.91770000       0.56250000       0.91220000
    70  H          0.41770000       0.43750000       0.08780000
    71  H          0.91770000       0.43750000       0.41220000
    72  H          0.41770000       0.56250000       0.58780000
    73  N          0.87594000       0.46253000       0.71477100
    74  N          0.37594000       0.53747000       0.28522900
    75  N          0.87594000       0.53747000       0.21477100
    76  N          0.37594000       0.46253000       0.78522900
    77  N          0.94954000       0.41213000       0.62414100
    78  N          0.44954000       0.58787000       0.37585900
    79  N          0.94954000       0.58787000       0.12414100
    80  N          0.44954000       0.41213000       0.87585900
    81  N          0.86255000       0.64573000       0.64186150
    82  N          0.36255000       0.35427000       0.35813850
    83  N          0.86255000       0.35427000       0.14186150
    84  N          0.36255000       0.64573000       0.85813850
    85  S          0.75512000       0.70691900       0.76066400
    86  S          0.25512000       0.29308100       0.23933600
    87  S          0.75512000       0.29308100       0.26066400
    88  S          0.25512000       0.70691900       0.73933600
    89  S          0.91482000       0.46687900       0.82485400
    90  S          0.41482000       0.53312100       0.17514600
    91  S          0.91482000       0.53312100       0.32485400
    92  S          0.41482000       0.46687900       0.67514600
    93  C          0.07535000       0.39384000      -0.00454860
    94  C          0.57535000       0.60616000       0.00454860
    95  C          0.07535000       0.60616000       0.49545140
    96  C          0.57535000       0.39384000       0.50454860
    97  C          0.83576000       0.07184000       0.98903180
    98  C          0.33576000       0.92816000       0.01096820
    99  C          0.83576000       0.92816000       0.48903180
   100  C          0.33576000       0.07184000       0.51096820
   101  C          0.84606000       0.97046000       0.94633180
   102  C          0.34606000       0.02954000       0.05366820
   103  C          0.84606000       0.02954000       0.44633180
   104  C          0.34606000       0.97046000       0.55366820
   105  C          0.95726000      -0.01204000       0.90135180
   106  C          0.45726000       0.01204000       0.09864820
   107  C          0.95726000       0.01204000       0.40135180
   108  C          0.45726000      -0.01204000       0.59864820
   109  C          0.06455000       0.10644000       0.89611160
   110  C          0.56455000       0.89356000       0.10388840
   111  C          0.06455000       0.89356000       0.39611160
   112  C          0.56455000       0.10644000       0.60388840
   113  C          0.05574000       0.20573000       0.93887130
   114  C          0.55574000       0.79427000       0.06112870
   115  C          0.05574000       0.79427000       0.43887130
   116  C          0.55574000       0.20573000       0.56112870
   117  C          0.94115000       0.19273000       0.98478130
   118  C          0.44115000       0.80727000       0.01521870
   119  C          0.94115000       0.80727000       0.48478130
   120  C          0.44115000       0.19273000       0.51521870
   121  H          0.21950000       0.37240000       0.92881600
   122  H          0.71950000       0.62760000       0.07118400
   123  H          0.21950000       0.62760000       0.42881600
   124  H          0.71950000       0.37240000       0.57118400
   125  H          0.75160000       0.06640000       0.01811700
   126  H          0.25160000       0.93360000       0.98188300
   127  H          0.75160000       0.93360000       0.51811700
   128  H          0.25160000       0.06640000       0.48188300
   129  H          0.78360000       0.88850000       0.94801800
   130  H          0.28360000       0.11150000       0.05198200
   131  H          0.78360000       0.11150000       0.44801800
   132  H          0.28360000       0.88850000       0.55198200
   133  H          0.96660000       0.91860000       0.87061800
   134  H          0.46660000       0.08140000       0.12938200
   135  H          0.96660000       0.08140000       0.37061800
   136  H          0.46660000       0.91860000       0.62938200
   137  H          0.15350000       0.12040000       0.86391700
   138  H          0.65350000       0.87960000       0.13608300
   139  H          0.15350000       0.87960000       0.36391700
   140  H          0.65350000       0.12040000       0.63608300
   141  H          0.20760000       0.56550000      -0.00188200
   142  H          0.70760000       0.43450000       0.00188200
   143  H          0.20760000       0.43450000       0.49811800
   144  H          0.70760000       0.56550000       0.50188200
   145  H          0.08460000       0.55950000       0.04620000
   146  H          0.58460000       0.44050000       0.95380000
   147  H          0.08460000       0.44050000       0.54620000
   148  H          0.58460000       0.55950000       0.45380000
   149  N          0.14074000       0.33543000       0.94754120
   150  N          0.64074000       0.66457000       0.05245880
   151  N          0.14074000       0.66457000       0.44754120
   152  N          0.64074000       0.33543000       0.55245880
   153  N          0.95514000       0.31273000       0.02032100
   154  N          0.45514000       0.68727000       0.97967900
   155  N          0.95514000       0.68727000       0.52032100
   156  N          0.45514000       0.31273000       0.47967900
   157  N          0.12135000       0.52464000       0.01387150
   158  N          0.62135000       0.47536000       0.98612850
   159  N          0.12135000       0.47536000       0.51387150
   160  N          0.62135000       0.52464000       0.48612850
