data_EXAMUM
_symmetry_space_group_name_H-M    'P1'
_symmetry_Int_Tables_number       1
loop_
_symmetry_equiv_pos_site_id
_symmetry_equiv_pos_as_xyz
1 x,y,z
_cell_length_a                   8.00605
_cell_length_b                   9.39135
_cell_length_c                   13.47868
_cell_angle_alpha                74.6113
_cell_angle_beta                 75.0533
_cell_angle_gamma                86.1023
loop_
_atom_site_label
_atom_site_type_symbol
_atom_site_fract_x
_atom_site_fract_y
_atom_site_fract_z
     1  S          0.47790500       0.09992400       0.28489300
     2  S          0.52209500       0.90007600       0.71510700
     3  N          0.56612000       0.83816160       0.10791120
     4  N          0.43388000       0.16183840       0.89208880
     5  O          0.54070160       0.00680150       0.37128110
     6  O          0.45929840      -0.00680150       0.62871890
     7  O          0.55403170       0.24512140       0.24160120
     8  O          0.44596830       0.75487860       0.75839880
     9  C          0.55042000       0.69742000       0.10397150
    10  C          0.44958000       0.30258000       0.89602850
    11  N          0.51263190       0.03043160       0.18435120
    12  N          0.48736810       0.96956840       0.81564880
    13  N          0.73268000       0.21008180       0.45343140
    14  N          0.26732000       0.78991820       0.54656860
    15  C          0.65293000       0.65382000       0.00717170
    16  C          0.34707000       0.34618000      -0.00717170
    17  H          0.59970000       0.69360000       0.94950000
    18  H          0.40030000       0.30640000       0.05050000
    19  H          0.65660000       0.54800000       0.02140000
    20  H          0.34340000       0.45200000       0.97860000
    21  H          0.76840000       0.69160000       0.98840000
    22  H          0.23160000       0.30840000       0.01160000
    23  C          0.48082000       0.88677180       0.19387130
    24  C          0.51918000       0.11322820       0.80612870
    25  C          0.25462000       0.12286170       0.33336130
    26  C          0.74538000       0.87713830       0.66663870
    27  C          0.13682000       0.12082000       0.27461140
    28  C          0.86318000       0.87918000       0.72538860
    29  H          0.17330000       0.10080000       0.20840000
    30  H          0.82670000       0.89920000       0.79160000
    31  C          0.96378000       0.14902000       0.31524150
    32  C          0.03622000       0.85098000       0.68475850
    33  H          0.88430000       0.14770000       0.27590000
    34  H          0.11570000       0.85230000       0.72410000
    35  C          0.90788000       0.17916170       0.41425140
    36  C          0.09212000       0.82083830       0.58574860
    37  C          0.44283000       0.60530190       0.18855150
    38  C          0.55717000       0.39469810       0.81144850
    39  H          0.42800000       0.50780000       0.18880000
    40  H          0.57200000       0.49220000       0.81120000
    41  C          0.02822000       0.18176190       0.47215140
    42  C          0.97178000       0.81823810       0.52784860
    43  H         -0.00790000       0.20280000       0.53810000
    44  H          0.00790000       0.79720000       0.46190000
    45  C          0.20042000       0.15343190       0.43253140
    46  C          0.79958000       0.84656810       0.56746860
    47  H          0.28000000       0.15470000       0.47180000
    48  H          0.72000000       0.84530000       0.52820000
    49  N          0.37421180       0.79916160       0.27798120
    50  N          0.62578820       0.20083840       0.72201880
    51  C          0.35552000       0.65988190       0.27459150
    52  C          0.64448000       0.34011810       0.72540850
    53  C          0.23603000       0.56142000       0.36710170
    54  C          0.76397000       0.43858000       0.63289830
    55  H          0.28530000       0.53890000       0.42730000
    56  H          0.71470000       0.46110000       0.57270000
    57  H          0.21870000       0.47160000       0.34980000
    58  H          0.78130000       0.52840000       0.65020000
    59  H          0.12700000       0.61030000       0.38380000
    60  H          0.87300000       0.38970000       0.61620000
    61  H          0.70770000       0.19330000       0.52520000
    62  H          0.29230000       0.80670000       0.47480000
    63  H          0.66260000       0.16530000       0.42820000
    64  H          0.33740000       0.83470000       0.57180000
    65  H          0.65240000       0.90130000       0.05220000
    66  H          0.34760000       0.09870000       0.94780000
    67  O          0.23422000       0.79080190       0.97279860
    68  O          0.76578000       0.20919810       0.02720140
    69  O          0.18782000       0.98020170       0.04704120
    70  O          0.81218000       0.01979830       0.95295880
    71  O          0.66122000       0.51532000       0.38788120
    72  O          0.33878000       0.48468000       0.61211880
    73  C          0.78072000       0.59142000       0.30371150
    74  C          0.21928000       0.40858000       0.69628850
    75  C          0.87753000       0.52932000       0.22412160
    76  C          0.12247000       0.47068000       0.77587840
    77  H          0.86110000       0.43090000       0.22750000
    78  H          0.13890000       0.56910000       0.77250000
    79  C         -0.00217000       0.61382000       0.14023160
    80  C          0.00217000       0.38618000       0.85976840
    81  H          0.06230000       0.57180000       0.08720000
    82  H          0.93770000       0.42820000       0.91280000
    83  C          0.02382000       0.76222000       0.13397140
    84  C          0.97618000       0.23778000       0.86602860
    85  C          0.15492000       0.85342000       0.04728150
    86  C          0.84508000       0.14658000       0.95271850
    87  C          0.80222000       0.74002000       0.29689150
    88  C          0.19778000       0.25998000       0.70310850
    89  H          0.73520000       0.78270000       0.34890000
    90  H          0.26480000       0.21730000       0.65110000
    91  C          0.92292000       0.82372000       0.21285150
    92  C          0.07708000       0.17628000       0.78714850
    93  H          0.93710000       0.92270000       0.20880000
    94  H          0.06290000       0.07730000       0.79120000
    95  H          0.67250000       0.43640000       0.39530000
    96  H          0.32750000       0.56360000       0.60470000
    97  H          0.29660000       0.84950000       0.92670000
    98  H          0.70340000       0.15050000       0.07330000
