data_EXEYIQ
_symmetry_space_group_name_H-M    'P1'
_symmetry_Int_Tables_number       1
loop_
_symmetry_equiv_pos_site_id
_symmetry_equiv_pos_as_xyz
1 x,y,z
_cell_length_a                   6.052112
_cell_length_b                   7.965016
_cell_length_c                   30.4155
_cell_angle_alpha                90.0
_cell_angle_beta                 97.13711
_cell_angle_gamma                90.0
loop_
_atom_site_label
_atom_site_type_symbol
_atom_site_fract_x
_atom_site_fract_y
_atom_site_fract_z
     1  O          0.29773000       0.65742000       0.56320500
     2  O          0.70227000       0.15742000       0.93679500
     3  O          0.70227000       0.34258000       0.43679500
     4  O          0.29773000       0.84258000       0.06320500
     5  H          0.37360000       0.68920000       0.54430000
     6  H          0.62640000       0.18920000       0.95570000
     7  H          0.62640000       0.31080000       0.45570000
     8  H          0.37360000       0.81080000       0.04430000
     9  O          0.60643000       0.71212000       0.60837500
    10  O          0.39357000       0.21212000       0.89162500
    11  O          0.39357000       0.28788000       0.39162500
    12  O          0.60643000       0.78788000       0.10837500
    13  C          0.41794000       0.66023000       0.60220700
    14  C          0.58206000       0.16023000       0.89779300
    15  C          0.58206000       0.33977000       0.39779300
    16  C          0.41794000       0.83977000       0.10220700
    17  C          0.29824000       0.59263000       0.63762700
    18  C          0.70176000       0.09263000       0.86237300
    19  C          0.70176000       0.40737000       0.36237300
    20  C          0.29824000       0.90737000       0.13762700
    21  H          0.14880000       0.56430000       0.63090000
    22  H          0.85120000       0.06430000       0.86910000
    23  H          0.85120000       0.43570000       0.36910000
    24  H          0.14880000       0.93570000       0.13090000
    25  C          0.39384000       0.57083000       0.67806700
    26  C          0.60616000       0.07083000       0.82193300
    27  C          0.60616000       0.42917000       0.32193300
    28  C          0.39384000       0.92917000       0.17806700
    29  H          0.54260000       0.60220000       0.68380000
    30  H          0.45740000       0.10220000       0.81620000
    31  H          0.45740000       0.39780000       0.31620000
    32  H          0.54260000       0.89780000       0.18380000
    33  C          0.29123000       0.50182000       0.71564600
    34  C          0.70877000       0.00182000       0.78435400
    35  C          0.70877000       0.49818000       0.28435400
    36  C          0.29123000      -0.00182000       0.21564600
    37  C          0.40264000       0.51523000       0.75849700
    38  C          0.59736000       0.01523000       0.74150300
    39  C          0.59736000       0.48477000       0.24150300
    40  C          0.40264000      -0.01523000       0.25849700
    41  H          0.54190000       0.56600000       0.76300000
    42  H          0.45810000       0.06600000       0.73700000
    43  H          0.45810000       0.43400000       0.23700000
    44  H          0.54190000       0.93400000       0.26300000
    45  C          0.30805000       0.45373000       0.79416800
    46  C          0.69195000       0.95373000       0.70583200
    47  C          0.69195000       0.54627000       0.20583200
    48  C          0.30805000       0.04627000       0.29416800
    49  H          0.38390000       0.46290000       0.82260000
    50  H          0.61610000       0.96290000       0.67740000
    51  H          0.61610000       0.53710000       0.17740000
    52  H          0.38390000       0.03710000       0.32260000
    53  C          0.10405000       0.37973000       0.78794900
    54  C          0.89595000       0.87973000       0.71205100
    55  C          0.89595000       0.62027000       0.21205100
    56  C          0.10405000       0.12027000       0.28794900
    57  H          0.04030000       0.33890000       0.81210000
    58  H          0.95970000       0.83890000       0.68790000
    59  H          0.95970000       0.66110000       0.18790000
    60  H          0.04030000       0.16110000       0.31210000
    61  C         -0.00765000       0.36513000       0.74615900
    62  C          0.00765000       0.86513000       0.75384100
    63  C          0.00765000       0.63487000       0.25384100
    64  C         -0.00765000       0.13487000       0.24615900
    65  H          0.85330000       0.31380000       0.74210000
    66  H          0.14670000       0.81380000       0.75790000
    67  H          0.14670000       0.68620000       0.25790000
    68  H          0.85330000       0.18620000       0.24210000
    69  C          0.08444000       0.42593000       0.70979800
    70  C          0.91556000       0.92593000       0.79020200
    71  C          0.91556000       0.57407000       0.29020200
    72  C          0.08444000       0.07407000       0.20979800
    73  H          0.00700000       0.41570000       0.68150000
    74  H         -0.00700000       0.91570000       0.81850000
    75  H         -0.00700000       0.58430000       0.31850000
    76  H          0.00700000       0.08430000       0.18150000
    77  Cl         0.80066130       0.92378100       0.37612200
    78  Cl         0.19933870       0.42378100       0.12387800
    79  Cl         0.19933870       0.07621900       0.62387800
    80  Cl         0.80066130       0.57621900       0.87612200
    81  N          0.50323000       0.75292000       0.49357500
    82  N          0.49677000       0.25292000       0.00642500
    83  N          0.49677000       0.24708000       0.50642500
    84  N          0.50323000       0.74708000       0.99357500
    85  N          0.79423000       0.88392000       0.53571500
    86  N          0.20577000       0.38392000       0.96428500
    87  N          0.20577000       0.11608000       0.46428500
    88  N          0.79423000       0.61608000       0.03571500
    89  H          0.74180000       0.84980000       0.55910000
    90  H          0.25820000       0.34980000       0.94090000
    91  H          0.25820000       0.15020000       0.44090000
    92  H          0.74180000       0.65020000       0.05910000
    93  H          0.91410000       0.94300000       0.53800000
    94  H          0.08590000       0.44300000       0.96200000
    95  H          0.08590000       0.05700000       0.46200000
    96  H          0.91410000       0.55700000       0.03800000
    97  N          0.78113000       0.90202000       0.46010500
    98  N          0.21887000       0.40202000       0.03989500
    99  N          0.21887000       0.09798000       0.53989500
   100  N          0.78113000       0.59798000       0.96010500
   101  C          0.68973000       0.84532000       0.49579600
   102  C          0.31027000       0.34532000       0.00420400
   103  C          0.31027000       0.15468000       0.50420400
   104  C          0.68973000       0.65468000      -0.00420400
   105  C          0.67554000       0.85923000       0.42151700
   106  C          0.32446000       0.35923000       0.07848300
   107  C          0.32446000       0.14077000       0.57848300
   108  C          0.67554000       0.64077000       0.92151700
   109  C          0.48414000       0.76753000       0.41511700
   110  C          0.51586000       0.26753000       0.08488300
   111  C          0.51586000       0.23247000       0.58488300
   112  C          0.48414000       0.73247000       0.91511700
   113  H          0.41400000       0.74190000       0.38690000
   114  H          0.58600000       0.24190000       0.11310000
   115  H          0.58600000       0.25810000       0.61310000
   116  H          0.41400000       0.75810000       0.88690000
   117  C          0.40014000       0.71463000       0.45328700
   118  C          0.59986000       0.21463000       0.04671300
   119  C          0.59986000       0.28537000       0.54671300
   120  C          0.40014000       0.78537000       0.95328700
   121  C          0.18734000       0.60673000       0.45122700
   122  C          0.81266000       0.10673000       0.04877300
   123  C          0.81266000       0.39327000       0.54877300
   124  C          0.18734000       0.89327000       0.95122700
   125  H          0.22670000       0.48990000       0.45140000
   126  H          0.77330000      -0.01010000       0.04860000
   127  H          0.77330000       0.51010000       0.54860000
   128  H          0.22670000       0.01010000       0.95140000
   129  H          0.09090000       0.63210000       0.42460000
   130  H          0.90910000       0.13210000       0.07540000
   131  H          0.90910000       0.36790000       0.57540000
   132  H          0.09090000       0.86790000       0.92460000
   133  H          0.11180000       0.63090000       0.47640000
   134  H          0.88820000       0.13090000       0.02360000
   135  H          0.88820000       0.36910000       0.52360000
   136  H          0.11180000       0.86910000       0.97640000
