data_EXEZUD
_symmetry_space_group_name_H-M    'P1'
_symmetry_Int_Tables_number       1
loop_
_symmetry_equiv_pos_site_id
_symmetry_equiv_pos_as_xyz
1 x,y,z
_cell_length_a                   9.89243
_cell_length_b                   15.00364
_cell_length_c                   11.34044
_cell_angle_alpha                90.0
_cell_angle_beta                 121.1962
_cell_angle_gamma                90.0
loop_
_atom_site_label
_atom_site_type_symbol
_atom_site_fract_x
_atom_site_fract_y
_atom_site_fract_z
     1  O          0.32352000       0.33350120       0.25213180
     2  O          0.67648000       0.83350120       0.24786820
     3  O          0.67648000       0.66649880       0.74786820
     4  O          0.32352000       0.16649880       0.75213180
     5  H          0.36630000       0.29890000       0.31750000
     6  H          0.63370000       0.79890000       0.18250000
     7  H          0.63370000       0.70110000       0.68250000
     8  H          0.36630000       0.20110000       0.81750000
     9  O          0.23582000       0.20770120       0.13107180
    10  O          0.76418000       0.70770120       0.36892820
    11  O          0.76418000       0.79229880       0.86892820
    12  O          0.23582000       0.29229880       0.63107180
    13  O          0.18863000       0.61588130       0.01703000
    14  O          0.81137000       0.11588130       0.48297000
    15  O          0.81137000       0.38411870       0.98297000
    16  O          0.18863000       0.88411870       0.51703000
    17  O          0.03593000       0.62289140       0.79838000
    18  O          0.96407000       0.12289140       0.70162000
    19  O          0.96407000       0.37710860       0.20162000
    20  O          0.03593000       0.87710860       0.29838000
    21  N          0.10873000       0.58154150       0.90487000
    22  N          0.89127000       0.08154150       0.59513000
    23  N          0.89127000       0.41845850       0.09513000
    24  N          0.10873000       0.91845850       0.40487000
    25  C          0.24413000       0.28813170       0.13723000
    26  C          0.75587000       0.78813170       0.36277000
    27  C          0.75587000       0.71186830       0.86277000
    28  C          0.24413000       0.21186830       0.63723000
    29  C          0.16383000       0.34393150       0.01072000
    30  C          0.83617000       0.84393150       0.48928000
    31  C          0.83617000       0.65606850      -0.01072000
    32  C          0.16383000       0.15606850       0.51072000
    33  C          0.17543000       0.43628160       0.01723000
    34  C          0.82457000       0.93628160       0.48277000
    35  C          0.82457000       0.56371840       0.98277000
    36  C          0.17543000       0.06371840       0.51723000
    37  H          0.23420000       0.46530000       0.10150000
    38  H          0.76580000       0.96530000       0.39850000
    39  H          0.76580000       0.53470000       0.89850000
    40  H          0.23420000       0.03470000       0.60150000
    41  C          0.09843000       0.48340150       0.89708000
    42  C          0.90157000       0.98340150       0.60292000
    43  C          0.90157000       0.51659850       0.10292000
    44  C          0.09843000       0.01659850       0.39708000
    45  C          0.01133000       0.44329190       0.77057000
    46  C         -0.01133000       0.94329190       0.72943000
    47  C         -0.01133000       0.55670810       0.22943000
    48  C          0.01133000       0.05670810       0.27057000
    49  H          0.95940000       0.47720000       0.69060000
    50  H          0.04060000       0.97720000       0.80940000
    51  H          0.04060000       0.52280000       0.30940000
    52  H          0.95940000       0.02280000       0.19060000
    53  C          0.00233000       0.35224190       0.76477000
    54  C         -0.00233000       0.85224190       0.73523000
    55  C         -0.00233000       0.64775810       0.23523000
    56  C          0.00233000       0.14775810       0.26477000
    57  H          0.94510000       0.32360000       0.68010000
    58  H          0.05490000       0.82360000       0.81990000
    59  H          0.05490000       0.67640000       0.31990000
    60  H          0.94510000       0.17640000       0.18010000
    61  C          0.07773000       0.30336180       0.88407000
    62  C          0.92227000       0.80336180       0.61593000
    63  C          0.92227000       0.69663820       0.11593000
    64  C          0.07773000       0.19663820       0.38407000
    65  H          0.07040000       0.24150000       0.87940000
    66  H          0.92960000       0.74150000       0.62060000
    67  H          0.92960000       0.75850000       0.12060000
    68  H          0.07040000       0.25850000       0.37940000
    69  Cl         0.75101120       0.08874600       0.87353800
    70  Cl         0.24898880       0.58874600       0.62646200
    71  Cl         0.24898880       0.91125400       0.12646200
    72  Cl         0.75101120       0.41125400       0.37353800
    73  N          0.48262000       0.23781130       0.48322000
    74  N          0.51738000       0.73781130       0.01678000
    75  N          0.51738000       0.76218870       0.51678000
    76  N          0.48262000       0.26218870       0.98322000
    77  N          0.42343000       0.10183130       0.37452000
    78  N          0.57657000       0.60183130       0.12548000
    79  N          0.57657000       0.89816870       0.62548000
    80  N          0.42343000       0.39816870       0.87452000
    81  H          0.42930000       0.04460000       0.37630000
    82  H          0.57070000       0.54460000       0.12370000
    83  H          0.57070000       0.95540000       0.62370000
    84  H          0.42930000       0.45540000       0.87630000
    85  H          0.37040000       0.12930000       0.29690000
    86  H          0.62960000       0.62930000       0.20310000
    87  H          0.62960000       0.87070000       0.70310000
    88  H          0.37040000       0.37070000       0.79690000
    89  N          0.57712000       0.10131120       0.60892000
    90  N          0.42288000       0.60131120       0.89108000
    91  N          0.42288000       0.89868880       0.39108000
    92  N          0.57712000       0.39868880       0.10892000
    93  C          0.49603000       0.14764150       0.49092000
    94  C          0.50397000       0.64764150       0.00908000
    95  C          0.50397000       0.85235850       0.50908000
    96  C          0.49603000       0.35235850      -0.00908000
    97  C          0.64743000       0.14898180       0.72263000
    98  C          0.35257000       0.64898180       0.77737000
    99  C          0.35257000       0.85101820       0.27737000
   100  C          0.64743000       0.35101820       0.22263000
   101  C          0.64183000       0.24035180       0.72693000
   102  C          0.35817000       0.74035180       0.77307000
   103  C          0.35817000       0.75964820       0.27307000
   104  C          0.64183000       0.25964820       0.22693000
   105  H          0.69330000       0.27160000       0.80970000
   106  H          0.30670000       0.77160000       0.69030000
   107  H          0.30670000       0.72840000       0.19030000
   108  H          0.69330000       0.22840000       0.30970000
   109  C          0.55573000       0.28287170       0.60213000
   110  C          0.44427000       0.78287170       0.89787000
   111  C          0.44427000       0.71712830       0.39787000
   112  C          0.55573000       0.21712830       0.10213000
   113  C          0.53884000       0.38567160       0.59213000
   114  C          0.46116000       0.88567160       0.90787000
   115  C          0.46116000       0.61432840       0.40787000
   116  C          0.53884000       0.11432840       0.09213000
   117  H          0.43170000       0.40170000       0.56200000
   118  H          0.56830000       0.90170000       0.93800000
   119  H          0.56830000       0.59830000       0.43800000
   120  H          0.43170000       0.09830000       0.06200000
   121  H          0.56540000       0.40750000       0.52710000
   122  H          0.43460000       0.90750000       0.97290000
   123  H          0.43460000       0.59250000       0.47290000
   124  H          0.56540000       0.09250000       0.02710000
   125  H          0.60860000       0.41150000       0.68090000
   126  H          0.39140000       0.91150000       0.81910000
   127  H          0.39140000       0.58850000       0.31910000
   128  H          0.60860000       0.08850000       0.18090000
