data_EXICIY
_symmetry_space_group_name_H-M    'P1'
_symmetry_Int_Tables_number       1
loop_
_symmetry_equiv_pos_site_id
_symmetry_equiv_pos_as_xyz
1 x,y,z
_cell_length_a                   6.870512
_cell_length_b                   7.481214
_cell_length_c                   13.7162
_cell_angle_alpha                81.7639
_cell_angle_beta                 80.5639
_cell_angle_gamma                84.0099
loop_
_atom_site_label
_atom_site_type_symbol
_atom_site_fract_x
_atom_site_fract_y
_atom_site_fract_z
     1  N          0.77502000       0.07302180       0.57729100
     2  N          0.22498000       0.92697820       0.42270900
     3  N          0.52959190       0.24392180       0.49050100
     4  N          0.47040810       0.75607820       0.50949900
     5  C          0.39942000       0.23912000       0.57537130
     6  C          0.60058000       0.76088000       0.42462870
     7  C          0.71322000       0.16062000       0.49348120
     8  C          0.28678000       0.83938000       0.50651880
     9  N          0.84002000       0.16652000       0.40969100
    10  N          0.15998000       0.83348000       0.59030900
    11  H          0.95810000       0.11550000       0.40970000
    12  H          0.04190000       0.88450000       0.59030000
    13  H          0.80440000       0.22150000       0.35510000
    14  H          0.19560000       0.77850000       0.64490000
    15  C          0.64583000       0.07192000       0.66095120
    16  C          0.35417000       0.92808000       0.33904880
    17  C          0.45513000       0.15252000       0.66262130
    18  C          0.54487000       0.84748000       0.33737870
    19  H          0.36640000       0.14800000       0.72180000
    20  H          0.63360000       0.85200000       0.27820000
    21  C          0.19753000       0.33113000       0.56880150
    22  C          0.80247000       0.66887000       0.43119850
    23  H          0.20720000       0.43760000       0.52070000
    24  H          0.79280000       0.56240000       0.47930000
    25  H          0.13880000       0.36480000       0.63270000
    26  H          0.86120000       0.63520000       0.36730000
    27  H          0.11650000       0.24990000       0.54880000
    28  H          0.88350000       0.75010000       0.45120000
    29  C          0.71963000       0.97997000       0.75411140
    30  C          0.28037000       0.02003000       0.24588860
    31  H          0.76270000       0.85580000       0.74660000
    32  H          0.23730000       0.14420000       0.25340000
    33  H          0.61480000      -0.01510000       0.80960000
    34  H          0.38520000       0.01510000       0.19040000
    35  H          0.82850000       0.04060000       0.76580000
    36  H          0.17150000       0.95940000       0.23420000
    37  C          0.41082000       0.55252000       0.17268120
    38  C          0.58918000       0.44748000       0.82731880
    39  O          0.39589190       0.39732000       0.33357100
    40  O          0.60410810       0.60268000       0.66642900
    41  H          0.46010000       0.35310000       0.37790000
    42  H          0.53990000       0.64690000       0.62210000
    43  O          0.69439190       0.42672000       0.24418100
    44  O          0.30560810       0.57328000       0.75581900
    45  C          0.51443000       0.45152000       0.25484130
    46  C          0.48557000       0.54848000       0.74515870
    47  N          0.12443000       0.83502000       0.94102880
    48  N          0.87557000       0.16498000       0.05897120
    49  C          0.51683000       0.65253000       0.09299140
    50  C          0.48317000       0.34747000       0.90700860
    51  H          0.65250000       0.65620000       0.09040000
    52  H          0.34750000       0.34380000       0.90960000
    53  C          0.22553000       0.73562000       0.02168130
    54  C          0.77447000       0.26438000       0.97831870
    55  C          0.42433000       0.74703000       0.01722130
    56  C          0.57567000       0.25297000       0.98277870
    57  H          0.49520000       0.81680000       0.96430000
    58  H          0.50480000       0.18320000       0.03570000
    59  C          0.20973000       0.54573000       0.17539140
    60  C          0.79027000       0.45427000       0.82460860
    61  H          0.13710000       0.47960000       0.22920000
    62  H          0.86290000       0.52040000       0.77080000
    63  O          0.21743000       0.93653000       0.87759870
    64  O          0.78257000       0.06347000       0.12240130
    65  C          0.11633000       0.63603000       0.09905150
    66  C          0.88367000       0.36397000       0.90094850
    67  H          0.98160000       0.62950000       0.10000000
    68  H          0.01840000       0.37050000       0.90000000
    69  O          0.95247000       0.81243000       0.94166870
    70  O          0.04753000       0.18757000       0.05833130
