data_EXICEU
_symmetry_space_group_name_H-M    'P1'
_symmetry_Int_Tables_number       1
loop_
_symmetry_equiv_pos_site_id
_symmetry_equiv_pos_as_xyz
1 x,y,z
_cell_length_a                   26.50204
_cell_length_b                   7.436101
_cell_length_c                   14.39222
_cell_angle_alpha                90.0
_cell_angle_beta                 98.91501
_cell_angle_gamma                90.0
loop_
_atom_site_label
_atom_site_type_symbol
_atom_site_fract_x
_atom_site_fract_y
_atom_site_fract_z
     1  Cl         0.21806300       0.61585170       0.72611700
     2  Cl         0.78193700       0.61585170       0.77388300
     3  Cl         0.71806300       0.11585170       0.72611700
     4  Cl         0.28193700       0.11585170       0.77388300
     5  Cl         0.78193700       0.38414830       0.27388300
     6  Cl         0.21806300       0.38414830       0.22611700
     7  Cl         0.28193700       0.88414830       0.27388300
     8  Cl         0.71806300       0.88414830       0.22611700
     9  O          0.43034500       0.39052000       0.56561100
    10  O          0.56965500       0.39052000       0.93438900
    11  O          0.93034500       0.89052000       0.56561100
    12  O          0.06965500       0.89052000       0.93438900
    13  O          0.56965500       0.60948000       0.43438900
    14  O          0.43034500       0.60948000       0.06561100
    15  O          0.06965500       0.10948000       0.43438900
    16  O          0.93034500       0.10948000       0.06561100
    17  H          0.45010000       0.34120000       0.53520000
    18  H          0.54990000       0.34120000       0.96480000
    19  H          0.95010000       0.84120000       0.53520000
    20  H          0.04990000       0.84120000       0.96480000
    21  H          0.54990000       0.65880000       0.46480000
    22  H          0.45010000       0.65880000       0.03520000
    23  H          0.04990000       0.15880000       0.46480000
    24  H          0.95010000       0.15880000       0.03520000
    25  C          0.34472800       0.46453000       0.56773140
    26  C          0.65527200       0.46453000       0.93226860
    27  C          0.84472800       0.96453000       0.56773140
    28  C          0.15527200       0.96453000       0.93226860
    29  C          0.65527200       0.53547000       0.43226860
    30  C          0.34472800       0.53547000       0.06773140
    31  C          0.15527200       0.03547000       0.43226860
    32  C          0.84472800       0.03547000       0.06773140
    33  C          0.38595800       0.40303000       0.51488150
    34  C          0.61404200       0.40303000       0.98511850
    35  C          0.88595800       0.90303000       0.51488150
    36  C          0.11404200       0.90303000       0.98511850
    37  C          0.61404200       0.59697000       0.48511850
    38  C          0.38595800       0.59697000       0.01488150
    39  C          0.11404200       0.09697000       0.48511850
    40  C          0.88595800       0.09697000       0.01488150
    41  C          0.35491800       0.50813000       0.66155150
    42  C          0.64508200       0.50813000       0.83844850
    43  C          0.85491800       0.00813000       0.66155150
    44  C          0.14508200       0.00813000       0.83844850
    45  C          0.64508200       0.49187000       0.33844850
    46  C          0.35491800       0.49187000       0.16155150
    47  C          0.14508200      -0.00813000       0.33844850
    48  C          0.85491800      -0.00813000       0.16155150
    49  H          0.38840000       0.50440000       0.69260000
    50  H          0.61160000       0.50440000       0.80740000
    51  H          0.88840000       0.00440000       0.69260000
    52  H          0.11160000       0.00440000       0.80740000
    53  H          0.61160000       0.49560000       0.30740000
    54  H          0.38840000       0.49560000       0.19260000
    55  H          0.11160000      -0.00440000       0.30740000
    56  H          0.88840000      -0.00440000       0.19260000
    57  O          0.37680700       0.36573000       0.43170110
    58  O          0.62319300       0.36573000       0.06829890
    59  O          0.87680700       0.86573000       0.43170110
    60  O          0.12319300       0.86573000       0.06829890
    61  O          0.62319300       0.63427000       0.56829890
    62  O          0.37680700       0.63427000       0.93170110
    63  O          0.12319300       0.13427000       0.56829890
    64  O          0.87680700       0.13427000       0.93170110
    65  C          0.31621900       0.55743000       0.71043160
    66  C          0.68378100       0.55743000       0.78956840
    67  C          0.81621900       0.05743000       0.71043160
    68  C          0.18378100       0.05743000       0.78956840
    69  C          0.68378100       0.44257000       0.28956840
    70  C          0.31621900       0.44257000       0.21043160
    71  C          0.18378100       0.94257000       0.28956840
    72  C          0.81621900       0.94257000       0.21043160
    73  H          0.32350000       0.58760000       0.77380000
    74  H          0.67650000       0.58760000       0.72620000
    75  H          0.82350000       0.08760000       0.77380000
    76  H          0.17650000       0.08760000       0.72620000
    77  H          0.67650000       0.41240000       0.22620000
    78  H          0.32350000       0.41240000       0.27380000
    79  H          0.17650000       0.91240000       0.22620000
    80  H          0.82350000       0.91240000       0.27380000
    81  C          0.26773100       0.56134000       0.66524190
    82  C          0.73226900       0.56134000       0.83475810
    83  C          0.76773100       0.06134000       0.66524190
    84  C          0.23226900       0.06134000       0.83475810
    85  C          0.73226900       0.43866000       0.33475810
    86  C          0.26773100       0.43866000       0.16524190
    87  C          0.23226900       0.93866000       0.33475810
    88  C          0.76773100       0.93866000       0.16524190
    89  C          0.29546100       0.47425000       0.52263190
    90  C          0.70453900       0.47425000       0.97736810
    91  C          0.79546100       0.97425000       0.52263190
    92  C          0.20453900       0.97425000       0.97736810
    93  C          0.70453900       0.52575000       0.47736810
    94  C          0.29546100       0.52575000       0.02263190
    95  C          0.20453900       0.02575000       0.47736810
    96  C          0.79546100       0.02575000       0.02263190
    97  H          0.28810000       0.44790000       0.45880000
    98  H          0.71190000       0.44790000       0.04120000
    99  H          0.78810000       0.94790000       0.45880000
   100  H          0.21190000       0.94790000       0.04120000
   101  H          0.71190000       0.55210000       0.54120000
   102  H          0.28810000       0.55210000       0.95880000
   103  H          0.21190000       0.05210000       0.54120000
   104  H          0.78810000       0.05210000       0.95880000
   105  C          0.25679110       0.52266000       0.57112000
   106  C          0.74320890       0.52266000       0.92888000
   107  C          0.75679110       0.02266000       0.57112000
   108  C          0.24320890       0.02266000       0.92888000
   109  C          0.74320890       0.47734000       0.42888000
   110  C          0.25679110       0.47734000       0.07112000
   111  C          0.24320890       0.97734000       0.42888000
   112  C          0.75679110       0.97734000       0.07112000
   113  H          0.22330000       0.52900000       0.54020000
   114  H          0.77670000       0.52900000       0.95980000
   115  H          0.72330000       0.02900000       0.54020000
   116  H          0.27670000       0.02900000       0.95980000
   117  H          0.77670000       0.47100000       0.45980000
   118  H          0.22330000       0.47100000       0.04020000
   119  H          0.27670000       0.97100000       0.45980000
   120  H          0.72330000       0.97100000       0.04020000
   121  N          0.54220600       0.13722000       0.36319110
   122  N          0.45779400       0.13722000       0.13680890
   123  N          0.04220600       0.63722000       0.36319110
   124  N          0.95779400       0.63722000       0.13680890
   125  N          0.45779400       0.86278000       0.63680890
   126  N          0.54220600       0.86278000       0.86319110
   127  N          0.95779400       0.36278000       0.63680890
   128  N          0.04220600       0.36278000       0.86319110
   129  N          0.50381600       0.24412000       0.49215100
   130  N          0.49618400       0.24412000       0.00784900
   131  N          0.00381600       0.74412000       0.49215100
   132  N         -0.00381600       0.74412000       0.00784900
   133  N          0.49618400       0.75588000       0.50784900
   134  N          0.50381600       0.75588000      -0.00784900
   135  N         -0.00381600       0.25588000       0.50784900
   136  N          0.00381600       0.25588000      -0.00784900
   137  C          0.50246700       0.20563000       0.39995120
   138  C          0.49753300       0.20563000       0.10004880
   139  C          0.00246700       0.70563000       0.39995120
   140  C         -0.00246700       0.70563000       0.10004880
   141  C          0.49753300       0.79437000       0.60004880
   142  C          0.50246700       0.79437000       0.89995120
   143  C         -0.00246700       0.29437000       0.60004880
   144  C          0.00246700       0.29437000       0.89995120
   145  C          0.54686800       0.20773000       0.55118130
   146  C          0.45313200       0.20773000       0.94881870
   147  C          0.04686800       0.70773000       0.55118130
   148  C          0.95313200       0.70773000       0.94881870
   149  C          0.45313200       0.79227000       0.44881870
   150  C          0.54686800       0.79227000       0.05118130
   151  C          0.95313200       0.29227000       0.44881870
   152  C          0.04686800       0.29227000       0.05118130
   153  C          0.58808800       0.13393000       0.51841150
   154  C          0.41191200       0.13393000       0.98158850
   155  C          0.08808800       0.63393000       0.51841150
   156  C          0.91191200       0.63393000       0.98158850
   157  C          0.41191200       0.86607000       0.48158850
   158  C          0.58808800       0.86607000       0.01841150
   159  C          0.91191200       0.36607000       0.48158850
   160  C          0.08808800       0.36607000       0.01841150
   161  H          0.61780000       0.10640000       0.55940000
   162  H          0.38220000       0.10640000       0.94060000
   163  H          0.11780000       0.60640000       0.55940000
   164  H          0.88220000       0.60640000       0.94060000
   165  H          0.38220000       0.89360000       0.44060000
   166  H          0.61780000       0.89360000       0.05940000
   167  H          0.88220000       0.39360000       0.44060000
   168  H          0.11780000       0.39360000       0.05940000
   169  N          0.45961600       0.23783000       0.34171110
   170  N          0.54038400       0.23783000       0.15828890
   171  N          0.95961600       0.73783000       0.34171110
   172  N          0.04038400       0.73783000       0.15828890
   173  N          0.54038400       0.76217000       0.65828890
   174  N          0.45961600       0.76217000       0.84171110
   175  N          0.04038400       0.26217000       0.65828890
   176  N          0.95961600       0.26217000       0.84171110
   177  H          0.45780000       0.21500000       0.28270000
   178  H          0.54220000       0.21500000       0.21730000
   179  H          0.95780000       0.71500000       0.28270000
   180  H          0.04220000       0.71500000       0.21730000
   181  H          0.54220000       0.78500000       0.71730000
   182  H          0.45780000       0.78500000       0.78270000
   183  H          0.04220000       0.28500000       0.71730000
   184  H          0.95780000       0.28500000       0.78270000
   185  H          0.43360000       0.28140000       0.36290000
   186  H          0.56640000       0.28140000       0.13710000
   187  H          0.93360000       0.78140000       0.36290000
   188  H          0.06640000       0.78140000       0.13710000
   189  H          0.56640000       0.71860000       0.63710000
   190  H          0.43360000       0.71860000       0.86290000
   191  H          0.06640000       0.21860000       0.63710000
   192  H          0.93360000       0.21860000       0.86290000
   193  C          0.58451700       0.10123000       0.42287140
   194  C          0.41548300       0.10123000       0.07712860
   195  C          0.08451700       0.60123000       0.42287140
   196  C          0.91548300       0.60123000       0.07712860
   197  C          0.41548300       0.89877000       0.57712860
   198  C          0.58451700       0.89877000       0.92287140
   199  C          0.91548300       0.39877000       0.57712860
   200  C          0.08451700       0.39877000       0.92287140
   201  C          0.62811900       0.02433000       0.38071180
   202  C          0.37188100       0.02433000       0.11928820
   203  C          0.12811900       0.52433000       0.38071180
   204  C          0.87188100       0.52433000       0.11928820
   205  C          0.37188100       0.97567000       0.61928820
   206  C          0.62811900       0.97567000       0.88071180
   207  C          0.87188100       0.47567000       0.61928820
   208  C          0.12811900       0.47567000       0.88071180
   209  H          0.61500000       0.95150000       0.32730000
   210  H          0.38500000       0.95150000       0.17270000
   211  H          0.11500000       0.45150000       0.32730000
   212  H          0.88500000       0.45150000       0.17270000
   213  H          0.38500000       0.04850000       0.67270000
   214  H          0.61500000       0.04850000       0.82730000
   215  H          0.88500000       0.54850000       0.67270000
   216  H          0.11500000       0.54850000       0.82730000
   217  H          0.64900000       0.95190000       0.42670000
   218  H          0.35100000       0.95190000       0.07330000
   219  H          0.14900000       0.45190000       0.42670000
   220  H          0.85100000       0.45190000       0.07330000
   221  H          0.35100000       0.04810000       0.57330000
   222  H          0.64900000       0.04810000       0.92670000
   223  H          0.85100000       0.54810000       0.57330000
   224  H          0.14900000       0.54810000       0.92670000
   225  H          0.64820000       0.12050000       0.36110000
   226  H          0.35180000       0.12050000       0.13890000
   227  H          0.14820000       0.62050000       0.36110000
   228  H          0.85180000       0.62050000       0.13890000
   229  H          0.35180000       0.87950000       0.63890000
   230  H          0.64820000       0.87950000       0.86110000
   231  H          0.85180000       0.37950000       0.63890000
   232  H          0.14820000       0.37950000       0.86110000
   233  C          0.54710100       0.25243000       0.65251140
   234  C          0.45289900       0.25243000       0.84748860
   235  C          0.04710100       0.75243000       0.65251140
   236  C          0.95289900       0.75243000       0.84748860
   237  C          0.45289900       0.74757000       0.34748860
   238  C          0.54710100       0.74757000       0.15251140
   239  C          0.95289900       0.24757000       0.34748860
   240  C          0.04710100       0.24757000       0.15251140
   241  H          0.53760000       0.37610000       0.65810000
   242  H          0.46240000       0.37610000       0.84190000
   243  H          0.03760000       0.87610000       0.65810000
   244  H          0.96240000       0.87610000       0.84190000
   245  H          0.46240000       0.62390000       0.34190000
   246  H          0.53760000       0.62390000       0.15810000
   247  H          0.96240000       0.12390000       0.34190000
   248  H          0.03760000       0.12390000       0.15810000
   249  H          0.58070000       0.23310000       0.68690000
   250  H          0.41930000       0.23310000       0.81310000
   251  H          0.08070000       0.73310000       0.68690000
   252  H          0.91930000       0.73310000       0.81310000
   253  H          0.41930000       0.76690000       0.31310000
   254  H          0.58070000       0.76690000       0.18690000
   255  H          0.91930000       0.26690000       0.31310000
   256  H          0.08070000       0.26690000       0.18690000
   257  H          0.52310000       0.17670000       0.67760000
   258  H          0.47690000       0.17670000       0.82240000
   259  H          0.02310000       0.67670000       0.67760000
   260  H          0.97690000       0.67670000       0.82240000
   261  H          0.47690000       0.82330000       0.32240000
   262  H          0.52310000       0.82330000       0.17760000
   263  H          0.97690000       0.32330000       0.32240000
   264  H          0.02310000       0.32330000       0.17760000
