data_EXIFAT
_symmetry_space_group_name_H-M    'P1'
_symmetry_Int_Tables_number       1
loop_
_symmetry_equiv_pos_site_id
_symmetry_equiv_pos_as_xyz
1 x,y,z
_cell_length_a                   4.93827
_cell_length_b                   12.684918
_cell_length_c                   14.6962
_cell_angle_alpha                108.04101
_cell_angle_beta                 92.9962
_cell_angle_gamma                97.9532
loop_
_atom_site_label
_atom_site_type_symbol
_atom_site_fract_x
_atom_site_fract_y
_atom_site_fract_z
     1  C          0.90467000       0.70233000       0.93652000
     2  C          0.09533000       0.29767000       0.06348000
     3  C          0.10847000       0.65213000       0.96853000
     4  C          0.89153000       0.34787000       0.03147000
     5  C          0.14838000       0.54574000       0.91233000
     6  C          0.85162000       0.45426000       0.08767000
     7  H          0.28130000       0.50910000       0.93080000
     8  H          0.71870000       0.49090000       0.06920000
     9  C         -0.02141000       0.49814000       0.82763000
    10  C          0.02141000       0.50186000       0.17237000
    11  H         -0.00570000       0.42670000       0.78770000
    12  H          0.00570000       0.57330000       0.21230000
    13  C          0.78489000       0.55533000       0.80153000
    14  C          0.21511000       0.44467000       0.19847000
    15  H          0.67600000       0.52060000       0.74350000
    16  H          0.32400000       0.47940000       0.25650000
    17  C          0.90217000       0.81363000       0.01143000
    18  C          0.09783000       0.18637000       0.98857000
    19  C          0.10077000       0.82773000       0.08633000
    20  C          0.89923000       0.17227000       0.91367000
    21  C          0.13429000       0.92354000       0.16503000
    22  C          0.86571000       0.07646000       0.83497000
    23  H          0.26450000       0.93550000       0.21670000
    24  H          0.73550000       0.06450000       0.78330000
    25  C         -0.03491000       0.00074000       0.16333000
    26  C          0.03491000      -0.00074000       0.83667000
    27  H         -0.01950000       0.06700000       0.21450000
    28  H          0.01950000       0.93300000       0.78550000
    29  C          0.77298000       0.97993000       0.08593000
    30  C          0.22702000       0.02007000       0.91407000
    31  H          0.66220000       0.03400000       0.08730000
    32  H          0.33780000       0.96600000       0.91270000
    33  C          0.24128000       0.72774000       0.06333000
    34  C          0.75872000       0.27226000       0.93667000
    35  N          0.74416000       0.65803000       0.85492000
    36  N          0.25584000       0.34197000       0.14508000
    37  N          0.73396000       0.88583000       0.00732000
    38  N          0.26604000       0.11417000      -0.00732000
    39  O          0.42436000       0.70913000       0.11192000
    40  O          0.57564000       0.29087000       0.88808000
    41  C          0.81393000       0.25363000       0.39532000
    42  C          0.18607000       0.74637000       0.60468000
    43  C          0.74573000       0.16523000       0.43003000
    44  C          0.25427000       0.83477000       0.56997000
    45  C          0.88532000       0.15773000       0.50973000
    46  C          0.11468000       0.84227000       0.49027000
    47  C          0.10738000       0.23893000       0.55883000
    48  C          0.89262000       0.76107000       0.44117000
    49  C          0.17728000       0.32743000       0.52463000
    50  C          0.82272000       0.67257000       0.47537000
    51  C          0.03187000       0.33503000       0.44533000
    52  C         -0.03187000       0.66497000       0.55467000
    53  F          0.53185000       0.08375190       0.38466190
    54  F          0.46815000       0.91624810       0.61533810
    55  F          0.80725000       0.07003180       0.54061180
    56  F          0.19275000       0.92996820       0.45938820
    57  F          0.38755000       0.40932000       0.56939170
    58  F          0.61245000       0.59068000       0.43060830
    59  F          0.10615000       0.42475170       0.41613160
    60  F          0.89385000       0.57524830       0.58386840
    61  I          0.59266500       0.26809200       0.27580817
    62  I          0.40733500       0.73190800       0.72419183
    63  I          0.31506600       0.23192200       0.68317919
    64  I          0.68493400       0.76807800       0.31682081
