data_EXUNUH
_symmetry_space_group_name_H-M    'P1'
_symmetry_Int_Tables_number       1
loop_
_symmetry_equiv_pos_site_id
_symmetry_equiv_pos_as_xyz
1 x,y,z
_cell_length_a                   9.02392
_cell_length_b                   16.83084
_cell_length_c                   10.03932
_cell_angle_alpha                90.0
_cell_angle_beta                 104.2642
_cell_angle_gamma                90.0
loop_
_atom_site_label
_atom_site_type_symbol
_atom_site_fract_x
_atom_site_fract_y
_atom_site_fract_z
     1  O          0.18743140       0.14138600       0.50451100
     2  O          0.81256860       0.64138600      -0.00451100
     3  O          0.81256860       0.85861400       0.49548900
     4  O          0.18743140       0.35861400       0.00451100
     5  O          0.40393130       0.14634600       0.95740100
     6  O          0.59606870       0.64634600       0.54259900
     7  O          0.59606870       0.85365400       0.04259900
     8  O          0.40393130       0.35365400       0.45740100
     9  H          0.48151700       0.14861200       0.90461800
    10  H          0.51848300       0.64861200       0.59538200
    11  H          0.51848300       0.85138800       0.09538200
    12  H          0.48151700       0.35138800       0.40461800
    13  C          0.17590180       0.01613900       0.92060140
    14  C          0.82409820       0.51613900       0.57939860
    15  C          0.82409820       0.98386100       0.07939860
    16  C          0.17590180       0.48386100       0.42060140
    17  H          0.13010000       0.06050000       0.95320000
    18  H          0.86990000       0.56050000       0.54680000
    19  H          0.86990000       0.93950000       0.04680000
    20  H          0.13010000       0.43950000       0.45320000
    21  C          0.08372000       0.96124900       0.83754150
    22  C          0.91628000       0.46124900       0.66245850
    23  C          0.91628000       0.03875100       0.16245850
    24  C          0.08372000       0.53875100       0.33754150
    25  H          0.97580000       0.96770000       0.81350000
    26  H          0.02420000       0.46770000       0.68650000
    27  H          0.02420000       0.03230000       0.18650000
    28  H          0.97580000       0.53230000       0.31350000
    29  C          0.15060190       0.89608100       0.78916150
    30  C          0.84939810       0.39608100       0.71083850
    31  C          0.84939810       0.10391900       0.21083850
    32  C          0.15060190       0.60391900       0.28916150
    33  H          0.08880000       0.85840000       0.73010000
    34  H          0.91120000       0.35840000       0.76990000
    35  H          0.91120000       0.14160000       0.26990000
    36  H          0.08880000       0.64160000       0.23010000
    37  C          0.30720180       0.88686100       0.82783140
    38  C          0.69279820       0.38686100       0.67216860
    39  C          0.69279820       0.11313900       0.17216860
    40  C          0.30720180       0.61313900       0.32783140
    41  H          0.35230000       0.84210000       0.79560000
    42  H          0.64770000       0.34210000       0.70440000
    43  H          0.64770000       0.15790000       0.20440000
    44  H          0.35230000       0.65790000       0.29560000
    45  C          0.42793180       0.07587800       0.04152140
    46  C          0.57206820       0.57587800       0.45847860
    47  C          0.57206820       0.92412200       0.95847860
    48  C          0.42793180       0.42412200       0.54152140
    49  C          0.33511180       0.00828900       0.95831140
    50  C          0.66488820       0.50828900       0.54168860
    51  C          0.66488820      -0.00828900       0.04168860
    52  C          0.33511180       0.49171100       0.45831140
    53  C          0.40139180       0.94199100       0.91364140
    54  C          0.59860820       0.44199100       0.58635860
    55  C          0.59860820       0.05800900       0.08635860
    56  C          0.40139180       0.55800900       0.41364140
    57  C          0.36511170       0.09409900       0.16721140
    58  C          0.63488830       0.59409900       0.33278860
    59  C          0.63488830       0.90590100       0.83278860
    60  C          0.36511170       0.40590100       0.66721140
    61  C          0.29676190       0.16605900       0.18267150
    62  C          0.70323810       0.66605900       0.31732850
    63  C          0.70323810       0.83394100       0.81732850
    64  C          0.29676190       0.33394100       0.68267150
    65  H          0.28830000       0.20600000       0.11440000
    66  H          0.71170000       0.70600000       0.38560000
    67  H          0.71170000       0.79400000       0.88560000
    68  H          0.28830000       0.29400000       0.61440000
    69  C          0.24039190       0.18016900       0.29750150
    70  C          0.75960810       0.68016900       0.20249850
    71  C          0.75960810       0.81983100       0.70249850
    72  C          0.24039190       0.31983100       0.79750150
    73  H          0.19550000       0.23010000       0.30810000
    74  H          0.80450000       0.73010000       0.19190000
    75  H          0.80450000       0.76990000       0.69190000
    76  H          0.19550000       0.26990000       0.80810000
    77  C          0.24934180       0.12197900       0.39619140
    78  C          0.75065820       0.62197900       0.10380860
    79  C          0.75065820       0.87802100       0.60380860
    80  C          0.24934180       0.37802100       0.89619140
    81  C          0.31860190       0.04968900       0.38295150
    82  C          0.68139810       0.54968900       0.11704850
    83  C          0.68139810       0.95031100       0.61704850
    84  C          0.31860190       0.45031100       0.88295150
    85  H          0.32650000       0.00970000       0.45110000
    86  H          0.67350000       0.50970000       0.04890000
    87  H          0.67350000       0.99030000       0.54890000
    88  H          0.32650000       0.49030000       0.95110000
    89  C          0.37618180       0.03678900       0.26857140
    90  C          0.62381820       0.53678900       0.23142860
    91  C          0.62381820       0.96321100       0.73142860
    92  C          0.37618180       0.46321100       0.76857140
    93  H          0.42430000       0.98760000       0.25950000
    94  H          0.57570000       0.48760000       0.24050000
    95  H          0.57570000       0.01240000       0.74050000
    96  H          0.42430000       0.51240000       0.75950000
    97  C          0.18772000       0.08064120       0.60392180
    98  C          0.81228000       0.58064120       0.89607820
    99  C          0.81228000       0.91935880       0.39607820
   100  C          0.18772000       0.41935880       0.10392180
   101  H          0.12960000       0.03470000       0.55880000
   102  H          0.87040000       0.53470000       0.94120000
   103  H          0.87040000       0.96530000       0.44120000
   104  H          0.12960000       0.46530000       0.05880000
   105  H          0.14050000       0.10100000       0.67520000
   106  H          0.85950000       0.60100000       0.82480000
   107  H          0.85950000       0.89900000       0.32480000
   108  H          0.14050000       0.39900000       0.17520000
   109  H          0.29320000       0.06450000       0.64600000
   110  H          0.70680000       0.56450000       0.85400000
   111  H          0.70680000       0.93550000       0.35400000
   112  H          0.29320000       0.43550000       0.14600000
   113  N          0.61665170       0.16864700       0.78744130
   114  N          0.38334830       0.66864700       0.71255870
   115  N          0.38334830       0.83135300       0.21255870
   116  N          0.61665170       0.33135300       0.28744130
   117  C          0.56682000       0.17694900       0.65110160
   118  C          0.43318000       0.67694900       0.84889840
   119  C          0.43318000       0.82305100       0.34889840
   120  C          0.56682000       0.32305100       0.15110160
   121  H          0.45970000       0.18070000       0.61290000
   122  H          0.54030000       0.68070000       0.88710000
   123  H          0.54030000       0.81930000       0.38710000
   124  H          0.45970000       0.31930000       0.11290000
   125  C          0.66192000       0.18037100       0.56314170
   126  C          0.33808000       0.68037100       0.93685830
   127  C          0.33808000       0.81962900       0.43685830
   128  C          0.66192000       0.31962900       0.06314170
   129  H          0.62110000       0.18530000       0.46680000
   130  H          0.37890000       0.68530000       0.03320000
   131  H          0.37890000       0.81470000       0.53320000
   132  H          0.62110000       0.31470000       0.96680000
   133  C          0.81702000       0.17651100       0.61745180
   134  C          0.18298000       0.67651100       0.88254820
   135  C          0.18298000       0.82348900       0.38254820
   136  C          0.81702000       0.32348900       0.11745180
   137  H          0.88560000       0.17910000       0.55950000
   138  H          0.11440000       0.67910000       0.94050000
   139  H          0.11440000       0.82090000       0.44050000
   140  H          0.88560000       0.32090000       0.05950000
   141  C          0.87142000       0.16884100       0.75828180
   142  C          0.12858000       0.66884100       0.74171820
   143  C          0.12858000       0.83115900       0.24171820
   144  C          0.87142000       0.33115900       0.25828180
   145  H          0.97810000       0.16640000       0.79890000
   146  H          0.02190000       0.66640000       0.70110000
   147  H          0.02190000       0.83360000       0.20110000
   148  H          0.97810000       0.33360000       0.29890000
   149  C          0.76782000       0.16481900       0.83838160
   150  C          0.23218000       0.66481900       0.66161840
   151  C          0.23218000       0.83518100       0.16161840
   152  C          0.76782000       0.33518100       0.33838160
   153  H          0.80590000       0.15900000       0.93490000
   154  H          0.19410000       0.65900000       0.56510000
   155  H          0.19410000       0.84100000       0.06510000
   156  H          0.80590000       0.34100000       0.43490000
