data_EYUQEX
_symmetry_space_group_name_H-M    'P1'
_symmetry_Int_Tables_number       1
loop_
_symmetry_equiv_pos_site_id
_symmetry_equiv_pos_as_xyz
1 x,y,z
_cell_length_a                   5.49396
_cell_length_b                   9.542511
_cell_length_c                   29.2734
_cell_angle_alpha                82.5146
_cell_angle_beta                 87.7426
_cell_angle_gamma                84.2206
loop_
_atom_site_label
_atom_site_type_symbol
_atom_site_fract_x
_atom_site_fract_y
_atom_site_fract_z
     1  O          0.67334000       0.24093000       0.01939900
     2  O          0.32666000       0.75907000       0.98060100
     3  H          0.72080000       0.20540000       0.04811500
     4  H          0.27920000       0.79460000       0.95188500
     5  O          0.38654000       0.37772000       0.98014200
     6  O          0.61346000       0.62228000       0.01985800
     7  O          0.27854000       0.16172000       0.21751800
     8  O          0.72146000       0.83828000       0.78248200
     9  N          0.42374000       0.26202000       0.09950900
    10  N          0.57626000       0.73798000       0.90049100
    11  N          0.63195000       0.12053000       0.17682110
    12  N          0.36805000       0.87947000       0.82317890
    13  H          0.69360000       0.12430000       0.15181100
    14  H          0.30640000       0.87570000       0.84818900
    15  N          0.89305000       0.78353000       0.19289900
    16  N          0.10695000       0.21647000       0.80710100
    17  N          0.80995000       0.65953000       0.19039100
    18  N          0.19005000       0.34047000       0.80960900
    19  N          0.57514000       0.67023000       0.20501800
    20  N          0.42486000       0.32977000       0.79498200
    21  C          0.46336000       0.32364000       0.01722130
    22  C          0.53664000       0.67636000       0.98277870
    23  C          0.32946000       0.34043000       0.06193110
    24  C          0.67054000       0.65957000       0.93806890
    25  C          0.11726000       0.43133000       0.06310110
    26  C          0.88274000       0.56867000       0.93689890
    27  H          0.05805400       0.48682200       0.03575500
    28  H          0.94194600       0.51317800       0.96424500
    29  C         -0.00716000       0.43973000       0.10463120
    30  C          0.00716000       0.56027000       0.89536880
    31  H          0.84712500       0.50158100       0.10644300
    32  H          0.15287500       0.49841900       0.89355700
    33  C          0.08426000       0.35653000       0.14362120
    34  C          0.91574000       0.64347000       0.85637880
    35  H          0.00090000       0.35892600       0.17260300
    36  H         -0.00090000       0.64107400       0.82739700
    37  C          0.29895000       0.27003000       0.13956110
    38  C          0.70105000       0.72997000       0.86043890
    39  C          0.40166000       0.17883000       0.18121120
    40  C          0.59834000       0.82117000       0.81878880
    41  C          0.74566000       0.02263000       0.21388110
    42  C          0.25434000       0.97737000       0.78611890
    43  H          0.67335100       0.04603000       0.24379800
    44  H          0.32664900       0.95397000       0.75620200
    45  H          0.92273700       0.03408100       0.21375200
    46  H          0.07726300       0.96591900       0.78624800
    47  C          0.71186000       0.87183000       0.20919100
    48  C          0.28814000       0.12817000       0.79080900
    49  C          0.50916000       0.79913000       0.21720100
    50  C          0.49084000       0.20087000       0.78279900
    51  H          0.35378700       0.83311100       0.22897000
    52  H          0.64621300       0.16688900       0.77103000
    53  C          0.43296000       0.54783000       0.20719110
    54  C          0.56704000       0.45217000       0.79280890
    55  H          0.50059000       0.48633100       0.18406800
    56  H          0.49941000       0.51366900       0.81593200
    57  H          0.26168200       0.58146900       0.19913700
    58  H          0.73831800       0.41853100       0.80086300
    59  C          0.43465000       0.46093000       0.25446110
    60  C          0.56535000       0.53907000       0.74553890
    61  H          0.31489500       0.38963500       0.25524300
    62  H          0.68510500       0.61036500       0.74475700
    63  H          0.38005600       0.52458900       0.27776800
    64  H          0.61994400       0.47541100       0.72223200
    65  C          0.68256000       0.38463000       0.26773110
    66  C          0.31744000       0.61537000       0.73226890
    67  H          0.74312500       0.32637900       0.24326300
    68  H          0.25687500       0.67362100       0.75673700
    69  H          0.79939100       0.45611100       0.26940900
    70  H          0.20060900       0.54388900       0.73059100
    71  C          0.67746000       0.28963000       0.31334110
    72  C          0.32254000       0.71037000       0.68665890
    73  H          0.61501300       0.34799200       0.33765600
    74  H          0.38498700       0.65200800       0.66234400
    75  H          0.56082300       0.21805400       0.31149100
    76  H          0.43917700       0.78194600       0.68850900
    77  C          0.92186000       0.21354000       0.32741110
    78  C          0.07814000       0.78646000       0.67258890
    79  H          0.03869700       0.28508600       0.32903200
    80  H          0.96130300       0.71491400       0.67096800
    81  H         -0.01632500       0.15466500       0.30318000
    82  H          0.01632500       0.84533500       0.69682000
    83  C          0.91746000       0.11933000       0.37316110
    84  C          0.08254000       0.88067000       0.62683890
    85  H          0.85297800       0.17806100       0.39723100
    86  H          0.14702200       0.82193900       0.60276900
    87  H          0.80178100       0.04715600       0.37132100
    88  H          0.19821900       0.95284400       0.62867900
    89  C          0.16016000       0.04404000       0.38801110
    90  C          0.83984000       0.95596000       0.61198890
    91  H          0.27667900       0.11595600       0.38931600
    92  H          0.72332100       0.88404400       0.61068400
    93  H          0.22312300       0.98370600       0.36425600
    94  H          0.77687700       0.01629400       0.63574400
    95  C          0.15526000       0.95246000       0.43396110
    96  C          0.84474000       0.04754000       0.56603890
    97  H          0.09368600       0.01342200       0.45765500
    98  H          0.90631400       0.98657800       0.54234500
    99  H          0.03621300       0.88189600       0.43269300
   100  H          0.96378700       0.11810400       0.56730700
   101  C          0.39416000       0.87476000       0.44929110
   102  C          0.60584000       0.12524000       0.55070890
   103  H          0.51252400       0.94560700       0.45076800
   104  H          0.48747600       0.05439300       0.54923200
   105  H          0.45620200       0.81470800       0.42541400
   106  H          0.54379800       0.18529200       0.57458600
   107  C          0.39056000       0.78246000       0.49480120
   108  C          0.60944000       0.21754000       0.50519880
   109  H          0.32855300       0.84269100       0.51866000
   110  H          0.67144700       0.15730900       0.48134000
   111  H          0.27181300       0.71187900       0.49331800
   112  H          0.72818700       0.28812100       0.50668200
   113  C          0.62886000       0.70446000       0.51024110
   114  C          0.37114000       0.29554000       0.48975890
   115  H          0.74723400       0.77520000       0.51179300
   116  H          0.25276600       0.22480000       0.48820700
   117  H          0.69100600       0.64467600       0.48628400
   118  H          0.30899400       0.35532400       0.51371600
   119  C          0.62646000       0.61156000       0.55559120
   120  C          0.37354000       0.38844000       0.44440880
   121  H          0.56530900       0.67143100       0.57961100
   122  H          0.43469100       0.32856900       0.42038900
   123  H          0.50747300       0.54111200       0.55412900
   124  H          0.49252700       0.45888800       0.44587100
   125  C          0.86406000       0.53366000       0.57057120
   126  C          0.13594000       0.46634000       0.42942880
   127  H         -0.01737100       0.60445600       0.57205200
   128  H          0.01737100       0.39554400       0.42794800
   129  H          0.92522400       0.47440500       0.54643700
   130  H          0.07477600       0.52559500       0.45356300
   131  C          0.86396000       0.43986000       0.61594120
   132  C          0.13604000       0.56014000       0.38405880
   133  H          0.80529400       0.49934400       0.64022300
   134  H          0.19470600       0.50065600       0.35977700
   135  H          0.74397600       0.36981400       0.61468500
   136  H          0.25602400       0.63018600       0.38531500
   137  C          0.10227000       0.36136000       0.63012130
   138  C          0.89773000       0.63864000       0.36987870
   139  H          0.22203000       0.43151000       0.63143000
   140  H          0.77797000       0.56849000       0.36857000
   141  H          0.16092000       0.30209300       0.60581700
   142  H          0.83908000       0.69790700       0.39418300
   143  C          0.10198000       0.26726000       0.67550130
   144  C          0.89802000       0.73274000       0.32449870
   145  H         -0.01081500       0.19452400       0.67446800
   146  H          0.01081500       0.80547600       0.32553200
   147  H          0.04901100       0.32458700       0.70019900
   148  H          0.95098900       0.67541300       0.29980100
   149  H          0.26740000       0.22145600       0.68142900
   150  H          0.73260000       0.77854400       0.31857100
   151  S          0.08585140       0.98282800       0.06394300
   152  S          0.91414860       0.01717200       0.93605700
   153  O          0.91946000       0.08432000       0.08933700
   154  O          0.08054000       0.91568000       0.91066300
   155  C          0.30186000       0.89704000       0.10415130
   156  C          0.69814000       0.10296000       0.89584870
   157  H          0.42019800       0.96297500       0.10945900
   158  H          0.57980200       0.03702500       0.89054100
   159  H          0.38763400       0.81403100       0.09199900
   160  H          0.61236600       0.18596900       0.90800100
   161  H          0.21708500       0.86629800       0.13328500
   162  H          0.78291500       0.13370200       0.86671500
   163  C          0.91784000       0.83504000       0.06064120
   164  C          0.08216000       0.16496000       0.93935880
   165  H          0.86451800       0.79664400       0.09170200
   166  H          0.13548200       0.20335600       0.90829800
   167  H          0.02213100       0.76149700       0.04674300
   168  H         -0.02213100       0.23850300       0.95325700
   169  H          0.77440400       0.86526700       0.04166800
   170  H          0.22559600       0.13473300       0.95833200
