data_EZAZUC
_symmetry_space_group_name_H-M    'P1'
_symmetry_Int_Tables_number       1
loop_
_symmetry_equiv_pos_site_id
_symmetry_equiv_pos_as_xyz
1 x,y,z
_cell_length_a                   17.44731
_cell_length_b                   11.94617
_cell_length_c                   14.25018
_cell_angle_alpha                90.0
_cell_angle_beta                 109.9162
_cell_angle_gamma                90.0
loop_
_atom_site_label
_atom_site_type_symbol
_atom_site_fract_x
_atom_site_fract_y
_atom_site_fract_z
     1  O          0.65381800       0.66533100       0.42100100
     2  O          0.34618200       0.66533100       0.57899900
     3  O          0.15381800       0.16533100       0.42100100
     4  O          0.84618200       0.16533100       0.57899900
     5  H          0.63970000       0.68330000       0.36050000
     6  H          0.36030000       0.68330000       0.63950000
     7  H          0.13970000       0.18330000       0.36050000
     8  H          0.86030000       0.18330000       0.63950000
     9  O          0.80627700       0.61719110       0.41676900
    10  O          0.19372300       0.61719110       0.58323100
    11  O          0.30627700       0.11719110       0.41676900
    12  O          0.69372300       0.11719110       0.58323100
    13  O          0.64625700       0.62556110       0.23341900
    14  O          0.35374300       0.62556110       0.76658100
    15  O          0.14625700       0.12556110       0.23341900
    16  O          0.85374300       0.12556110       0.76658100
    17  O          0.80167800       0.67528100       0.23637100
    18  O          0.19832200       0.67528100       0.76362900
    19  O          0.30167800       0.17528100       0.23637100
    20  O          0.69832200       0.17528100       0.76362900
    21  H          0.81260000       0.68690000       0.29770000
    22  H          0.18740000       0.68690000       0.70230000
    23  H          0.31260000       0.18690000       0.29770000
    24  H          0.68740000       0.18690000       0.70230000
    25  C          0.67968900       0.55156130       0.43259130
    26  C          0.32031100       0.55156130       0.56740870
    27  C          0.17968900       0.05156130       0.43259130
    28  C          0.82031100       0.05156130       0.56740870
    29  C          0.74383900       0.53459130       0.37963120
    30  C          0.25616100       0.53459130       0.62036880
    31  C          0.24383900       0.03459130       0.37963120
    32  C          0.75616100       0.03459130       0.62036880
    33  H          0.76920000       0.45910000       0.39860000
    34  H          0.23080000       0.45910000       0.60140000
    35  H          0.26920000       0.95910000       0.39860000
    36  H          0.73080000       0.95910000       0.60140000
    37  C          0.70752900       0.54034130       0.26387120
    38  C          0.29247100       0.54034130       0.73612880
    39  C          0.20752900       0.04034130       0.26387120
    40  C          0.79247100       0.04034130       0.73612880
    41  H          0.68110000       0.46680000       0.23890000
    42  H          0.31890000       0.46680000       0.76110000
    43  H          0.18110000       0.96680000       0.23890000
    44  H          0.81890000       0.96680000       0.76110000
    45  C          0.77238900       0.56363140       0.21305130
    46  C          0.22761100       0.56363140       0.78694870
    47  C          0.27238900       0.06363140       0.21305130
    48  C          0.72761100       0.06363140       0.78694870
    49  C          0.88156110       0.57712000       0.48679160
    50  C          0.11843890       0.57712000       0.51320840
    51  C          0.38156110       0.07712000       0.48679160
    52  C          0.61843890       0.07712000       0.51320840
    53  H          0.92250000       0.63670000       0.50140000
    54  H          0.07750000       0.63670000       0.49860000
    55  H          0.42250000       0.13670000       0.50140000
    56  H          0.57750000       0.13670000       0.49860000
    57  H          0.90060000       0.51270000       0.45820000
    58  H          0.09940000       0.51270000       0.54180000
    59  H          0.40060000       0.01270000       0.45820000
    60  H          0.59940000       0.01270000       0.54180000
    61  H          0.87300000       0.55440000       0.54860000
    62  H          0.12700000       0.55440000       0.45140000
    63  H          0.37300000       0.05440000       0.54860000
    64  H          0.62700000       0.05440000       0.45140000
    65  C          0.57048110       0.59252000       0.16016160
    66  C          0.42951890       0.59252000       0.83983840
    67  C          0.07048110       0.09252000       0.16016160
    68  C          0.92951890       0.09252000       0.83983840
    69  H          0.53200000       0.65520000       0.14660000
    70  H          0.46800000       0.65520000       0.85340000
    71  H          0.03200000       0.15520000       0.14660000
    72  H          0.96800000       0.15520000       0.85340000
    73  H          0.54790000       0.52870000       0.18530000
    74  H          0.45210000       0.52870000       0.81470000
    75  H          0.04790000       0.02870000       0.18530000
    76  H          0.95210000       0.02870000       0.81470000
    77  H          0.57970000       0.57110000       0.09850000
    78  H          0.42030000       0.57110000       0.90150000
    79  H          0.07970000       0.07110000       0.09850000
    80  H          0.92030000       0.07110000       0.90150000
    81  C          0.72036900       0.53120140       0.54491130
    82  C          0.27963100       0.53120140       0.45508870
    83  C          0.22036900       0.03120140       0.54491130
    84  C          0.77963100       0.03120140       0.45508870
    85  C          0.73909120       0.62070160       0.61100150
    86  C          0.26090880       0.62070160       0.38899850
    87  C          0.23909120       0.12070160       0.61100150
    88  C          0.76090880       0.12070160       0.38899850
    89  H          0.72540000       0.69460000       0.58650000
    90  H          0.27460000       0.69460000       0.41350000
    91  H          0.22540000       0.19460000       0.58650000
    92  H          0.77460000       0.19460000       0.41350000
    93  C          0.77747160       0.60342000       0.71219180
    94  C          0.22252840       0.60342000       0.28780820
    95  C          0.27747160       0.10342000       0.71219180
    96  C          0.72252840       0.10342000       0.28780820
    97  H          0.79050000       0.66540000       0.75650000
    98  H          0.20950000       0.66540000       0.24350000
    99  H          0.29050000       0.16540000       0.75650000
   100  H          0.70950000       0.16540000       0.24350000
   101  C          0.79691130       0.49622000       0.74913160
   102  C          0.20308870       0.49622000       0.25086840
   103  C          0.29691130      -0.00378000       0.74913160
   104  C          0.70308870      -0.00378000       0.25086840
   105  H          0.82290000       0.48450000       0.81870000
   106  H          0.17710000       0.48450000       0.18130000
   107  H          0.32290000       0.98450000       0.81870000
   108  H          0.67710000       0.98450000       0.18130000
   109  C          0.77845110       0.40647170       0.68459150
   110  C          0.22154890       0.40647170       0.31540850
   111  C          0.27845110       0.90647170       0.68459150
   112  C          0.72154890       0.90647170       0.31540850
   113  H          0.79180000       0.33270000       0.70970000
   114  H          0.20820000       0.33270000       0.29030000
   115  H          0.29180000       0.83270000       0.70970000
   116  H          0.70820000       0.83270000       0.29030000
   117  C          0.74045110       0.42359150       0.58318140
   118  C          0.25954890       0.42359150       0.41681860
   119  C          0.24045110       0.92359150       0.58318140
   120  C          0.75954890       0.92359150       0.41681860
   121  H          0.72790000       0.36130000       0.53920000
   122  H          0.27210000       0.36130000       0.46080000
   123  H          0.22790000       0.86130000       0.53920000
   124  H          0.77210000       0.86130000       0.46080000
   125  C          0.60609900       0.47343150       0.39090130
   126  C          0.39390100       0.47343150       0.60909870
   127  C          0.10609900       0.97343150       0.39090130
   128  C          0.89390100       0.97343150       0.60909870
   129  C          0.61191120       0.36714160       0.35368160
   130  C          0.38808880       0.36714160       0.64631840
   131  C          0.11191120       0.86714160       0.35368160
   132  C          0.88808880       0.86714160       0.64631840
   133  H          0.66330000       0.33990000       0.35470000
   134  H          0.33670000       0.33990000       0.64530000
   135  H          0.16330000       0.83990000       0.35470000
   136  H          0.83670000       0.83990000       0.64530000
   137  C          0.54253140       0.30058190       0.31493180
   138  C          0.45746860       0.30058190       0.68506820
   139  C          0.04253140       0.80058190       0.31493180
   140  C          0.95746860       0.80058190       0.68506820
   141  H          0.54650000       0.22890000       0.28810000
   142  H          0.45350000       0.22890000       0.71190000
   143  H          0.04650000       0.72890000       0.28810000
   144  H          0.95350000       0.72890000       0.71190000
   145  C          0.46767140       0.33922000       0.31564190
   146  C          0.53232860       0.33922000       0.68435810
   147  C          0.96767140       0.83922000       0.31564190
   148  C          0.03232860       0.83922000       0.68435810
   149  H          0.42020000       0.29450000       0.28840000
   150  H          0.57980000       0.29450000       0.71160000
   151  H          0.92020000       0.79450000       0.28840000
   152  H          0.07980000       0.79450000       0.71160000
   153  C          0.46247120       0.44212000       0.35573180
   154  C          0.53752880       0.44212000       0.64426820
   155  C          0.96247120       0.94212000       0.35573180
   156  C          0.03752880       0.94212000       0.64426820
   157  H          0.41160000       0.46730000       0.35830000
   158  H          0.58840000       0.46730000       0.64170000
   159  H          0.91160000       0.96730000       0.35830000
   160  H          0.08840000       0.96730000       0.64170000
   161  C          0.53093110       0.50994190       0.39260150
   162  C          0.46906890       0.50994190       0.60739850
   163  C          0.03093110       0.00994190       0.39260150
   164  C          0.96906890       0.00994190       0.60739850
   165  H          0.52630000       0.58160000       0.41910000
   166  H          0.47370000       0.58160000       0.58090000
   167  H          0.02630000       0.08160000       0.41910000
   168  H          0.97370000       0.08160000       0.58090000
   169  C          0.84363900       0.48059150       0.24765120
   170  C          0.15636100       0.48059150       0.75234880
   171  C          0.34363900       0.98059150       0.24765120
   172  C          0.65636100       0.98059150       0.75234880
   173  C          0.92029100       0.51767180       0.25019160
   174  C          0.07970900       0.51767180       0.74980840
   175  C          0.42029100       0.01767180       0.25019160
   176  C          0.57970900       0.01767180       0.74980840
   177  H          0.92680000       0.59180000       0.22990000
   178  H          0.07320000       0.59180000       0.77010000
   179  H          0.42680000       0.09180000       0.22990000
   180  H          0.57320000       0.09180000       0.77010000
   181  C          0.98713120       0.44592000       0.28244190
   182  C          0.01286880       0.44592000       0.71755810
   183  C          0.48713120       0.94592000       0.28244190
   184  C          0.51286880       0.94592000       0.71755810
   185  H          0.03900000       0.47130000       0.28360000
   186  H          0.96100000       0.47130000       0.71640000
   187  H          0.53900000       0.97130000       0.28360000
   188  H          0.46100000       0.97130000       0.71640000
   189  C          0.97875140       0.33832000       0.31272000
   190  C          0.02124860       0.33832000       0.68728000
   191  C          0.47875140       0.83832000       0.31272000
   192  C          0.52124860       0.83832000       0.68728000
   193  H          0.02500000       0.29080000       0.33680000
   194  H          0.97500000       0.29080000       0.66320000
   195  H          0.52500000       0.79080000       0.33680000
   196  H          0.47500000       0.79080000       0.66320000
   197  C          0.90299140       0.30030190       0.30789180
   198  C          0.09700860       0.30030190       0.69210820
   199  C          0.40299140       0.80030190       0.30789180
   200  C          0.59700860       0.80030190       0.69210820
   201  H          0.89670000       0.22570000       0.32720000
   202  H          0.10330000       0.22570000       0.67280000
   203  H          0.39670000       0.72570000       0.32720000
   204  H          0.60330000       0.72570000       0.67280000
   205  C          0.83598110       0.37070160       0.27497150
   206  C          0.16401890       0.37070160       0.72502850
   207  C          0.33598110       0.87070160       0.27497150
   208  C          0.66401890       0.87070160       0.72502850
   209  H          0.78390000       0.34330000       0.27100000
   210  H          0.21610000       0.34330000       0.72900000
   211  H          0.28390000       0.84330000       0.27100000
   212  H          0.71610000       0.84330000       0.72900000
   213  C          0.73179900       0.55931160       0.09966130
   214  C          0.26820100       0.55931160       0.90033870
   215  C          0.23179900       0.05931160       0.09966130
   216  C          0.76820100       0.05931160       0.90033870
   217  C          0.71297120       0.65763180       0.04486150
   218  C          0.28702880       0.65763180       0.95513850
   219  C          0.21297120       0.15763180       0.04486150
   220  C          0.78702880       0.15763180       0.95513850
   221  H          0.72620000       0.72770000       0.07790000
   222  H          0.27380000       0.72770000       0.92210000
   223  H          0.22620000       0.22770000       0.07790000
   224  H          0.77380000       0.22770000       0.92210000
   225  C          0.67489140       0.65442000       0.94173840
   226  C          0.32510860       0.65442000       0.05826160
   227  C          0.17489140       0.15442000       0.94173840
   228  C          0.82510860       0.15442000       0.05826160
   229  H          0.66230000       0.72240000       0.90510000
   230  H          0.33770000       0.72240000       0.09490000
   231  H          0.16230000       0.22240000       0.90510000
   232  H          0.83770000       0.22240000       0.09490000
   233  C          0.65524130       0.55372000       0.89230840
   234  C          0.34475870       0.55372000       0.10769160
   235  C          0.15524130       0.05372000       0.89230840
   236  C          0.84475870       0.05372000       0.10769160
   237  H          0.62910000       0.55200000       0.82190000
   238  H          0.37090000       0.55200000       0.17810000
   239  H          0.12910000       0.05200000       0.82190000
   240  H          0.87090000       0.05200000       0.17810000
   241  C          0.67397130       0.45502000       0.94627830
   242  C          0.32602870       0.45502000       0.05372170
   243  C          0.17397130       0.95502000       0.94627830
   244  C          0.82602870       0.95502000       0.05372170
   245  H          0.66070000       0.38520000       0.91280000
   246  H          0.33930000       0.38520000       0.08720000
   247  H          0.16070000       0.88520000       0.91280000
   248  H          0.83930000       0.88520000       0.08720000
   249  C          0.71203110       0.45763180       0.04914150
   250  C          0.28796890       0.45763180       0.95085850
   251  C          0.21203110       0.95763180       0.04914150
   252  C          0.78796890       0.95763180       0.95085850
   253  H          0.72470000       0.38940000       0.08550000
   254  H          0.27530000       0.38940000       0.91450000
   255  H          0.22470000       0.88940000       0.08550000
   256  H          0.77530000       0.88940000       0.91450000
   257  C          0.96023000       0.71553000       0.00373000
   258  C          0.03977000       0.71553000      -0.00373000
   259  C          0.46023000       0.21553000       0.00373000
   260  C          0.53977000       0.21553000      -0.00373000
   261  H          0.93300000       0.78380000       0.00590000
   262  H          0.06700000       0.78380000      -0.00590000
   263  H          0.43300000       0.28380000       0.00590000
   264  H          0.56700000       0.28380000      -0.00590000
   265  C          0.92447190       0.61623000       0.00732000
   266  C          0.07552810       0.61623000      -0.00732000
   267  C          0.42447190       0.11623000       0.00732000
   268  C          0.57552810       0.11623000      -0.00732000
   269  H          0.87160000       0.61590000       0.01240000
   270  H          0.12840000       0.61590000       0.98760000
   271  H          0.37160000       0.11590000       0.01240000
   272  H          0.62840000       0.11590000       0.98760000
   273  C          0.96132140       0.51582000       0.00414170
   274  C          0.03867860       0.51582000      -0.00414170
   275  C          0.46132140       0.01582000       0.00414170
   276  C          0.53867860       0.01582000      -0.00414170
   277  C          0.92024190       0.40783000       0.00992000
   278  C          0.07975810       0.40783000      -0.00992000
   279  C          0.42024190       0.90783000       0.00992000
   280  C          0.57975810       0.90783000      -0.00992000
   281  H          0.91400000       0.36330000       0.94990000
   282  H          0.08600000       0.36330000       0.05010000
   283  H          0.41400000       0.86330000       0.94990000
   284  H          0.58600000       0.86330000       0.05010000
   285  H          0.86640000       0.42290000       0.01450000
   286  H          0.13360000       0.42290000       0.98550000
   287  H          0.36640000       0.92290000       0.01450000
   288  H          0.63360000       0.92290000       0.98550000
   289  H          0.95330000       0.36610000       0.06910000
   290  H          0.04670000       0.36610000       0.93090000
   291  H          0.45330000       0.86610000       0.06910000
   292  H          0.54670000       0.86610000       0.93090000
