data_EZEBES
_symmetry_space_group_name_H-M    'P1'
_symmetry_Int_Tables_number       1
loop_
_symmetry_equiv_pos_site_id
_symmetry_equiv_pos_as_xyz
1 x,y,z
_cell_length_a                   17.27809
_cell_length_b                   12.20326
_cell_length_c                   14.08966
_cell_angle_alpha                90.0
_cell_angle_beta                 110.1352
_cell_angle_gamma                90.0
loop_
_atom_site_label
_atom_site_type_symbol
_atom_site_fract_x
_atom_site_fract_y
_atom_site_fract_z
     1  O          0.65559600       0.66043800       0.42950800
     2  O          0.34440400       0.66043800       0.57049200
     3  O          0.15559600       0.16043800       0.42950800
     4  O          0.84440400       0.16043800       0.57049200
     5  H          0.64170000       0.68020000       0.36880000
     6  H          0.35830000       0.68020000       0.63120000
     7  H          0.14170000       0.18020000       0.36880000
     8  H          0.85830000       0.18020000       0.63120000
     9  O          0.81050600       0.61605900       0.42608700
    10  O          0.18949400       0.61605900       0.57391300
    11  O          0.31050600       0.11605900       0.42608700
    12  O          0.68949400       0.11605900       0.57391300
    13  O          0.65219600       0.63168800       0.23948700
    14  O          0.34780400       0.63168800       0.76051300
    15  O          0.15219600       0.13168800       0.23948700
    16  O          0.84780400       0.13168800       0.76051300
    17  O          0.81270600       0.67100800       0.24600800
    18  O          0.18729400       0.67100800       0.75399200
    19  O          0.31270600       0.17100800       0.24600800
    20  O          0.68729400       0.17100800       0.75399200
    21  H          0.82570000       0.67980000       0.30870000
    22  H          0.17430000       0.67980000       0.69130000
    23  H          0.32570000       0.17980000       0.30870000
    24  H          0.67430000       0.17980000       0.69130000
    25  C          0.68216800       0.54931110       0.43836100
    26  C          0.31783200       0.54931110       0.56163900
    27  C          0.18216800       0.04931110       0.43836100
    28  C          0.81783200       0.04931110       0.56163900
    29  C          0.74768700       0.53560100       0.38572900
    30  C          0.25231300       0.53560100       0.61427100
    31  C          0.24768700       0.03560100       0.38572900
    32  C          0.75231300       0.03560100       0.61427100
    33  H          0.77340000       0.46150000       0.40340000
    34  H          0.22660000       0.46150000       0.59660000
    35  H          0.27340000       0.96150000       0.40340000
    36  H          0.72660000       0.96150000       0.59660000
    37  C          0.71141700       0.54471100       0.26863900
    38  C          0.28858300       0.54471100       0.73136100
    39  C          0.21141700       0.04471100       0.26863900
    40  C          0.78858300       0.04471100       0.73136100
    41  H          0.68240000       0.47450000       0.24140000
    42  H          0.31760000       0.47450000       0.75860000
    43  H          0.18240000       0.97450000       0.24140000
    44  H          0.81760000       0.97450000       0.75860000
    45  C          0.77822800       0.56452110       0.21895100
    46  C          0.22177200       0.56452110       0.78104900
    47  C          0.27822800       0.06452110       0.21895100
    48  C          0.72177200       0.06452110       0.78104900
    49  C          0.88659900       0.57492000       0.49611130
    50  C          0.11340100       0.57492000       0.50388870
    51  C          0.38659900       0.07492000       0.49611130
    52  C          0.61340100       0.07492000       0.50388870
    53  H          0.90670000       0.51490000       0.46450000
    54  H          0.09330000       0.51490000       0.53550000
    55  H          0.40670000       0.01490000       0.46450000
    56  H          0.59330000       0.01490000       0.53550000
    57  H          0.87740000       0.54770000       0.55680000
    58  H          0.12260000       0.54770000       0.44320000
    59  H          0.37740000       0.04770000       0.55680000
    60  H          0.62260000       0.04770000       0.44320000
    61  H          0.92760000       0.63380000       0.51480000
    62  H          0.07240000       0.63380000       0.48520000
    63  H          0.42760000       0.13380000       0.51480000
    64  H          0.57240000       0.13380000       0.48520000
    65  C          0.57412900       0.60285150       0.16606110
    66  C          0.42587100       0.60285150       0.83393890
    67  C          0.07412900       0.10285150       0.16606110
    68  C          0.92587100       0.10285150       0.83393890
    69  H          0.53600000       0.66470000       0.15620000
    70  H          0.46400000       0.66470000       0.84380000
    71  H          0.03600000       0.16470000       0.15620000
    72  H          0.96400000       0.16470000       0.84380000
    73  H          0.55160000       0.53900000       0.18990000
    74  H          0.44840000       0.53900000       0.81010000
    75  H          0.05160000       0.03900000       0.18990000
    76  H          0.94840000       0.03900000       0.81010000
    77  H          0.58140000       0.58510000       0.10180000
    78  H          0.41860000       0.58510000       0.89820000
    79  H          0.08140000       0.08510000       0.10180000
    80  H          0.91860000       0.08510000       0.89820000
    81  C          0.72268800       0.52582110       0.55163100
    82  C          0.27731200       0.52582110       0.44836900
    83  C          0.22268800       0.02582110       0.55163100
    84  C          0.77731200       0.02582110       0.44836900
    85  C          0.74415100       0.61238140       0.61985120
    86  C          0.25584900       0.61238140       0.38014880
    87  C          0.24415100       0.11238140       0.61985120
    88  C          0.75584900       0.11238140       0.38014880
    89  H          0.73250000       0.68560000       0.59630000
    90  H          0.26750000       0.68560000       0.40370000
    91  H          0.23250000       0.18560000       0.59630000
    92  H          0.76750000       0.18560000       0.40370000
    93  C          0.78251120       0.59215160       0.72242120
    94  C          0.21748880       0.59215160       0.27757880
    95  C          0.28251120       0.09215160       0.72242120
    96  C          0.71748880       0.09215160       0.27757880
    97  H          0.79720000       0.65180000       0.76850000
    98  H          0.20280000       0.65180000       0.23150000
    99  H          0.29720000       0.15180000       0.76850000
   100  H          0.70280000       0.15180000       0.23150000
   101  C          0.79956110       0.48653160       0.75806120
   102  C          0.20043890       0.48653160       0.24193880
   103  C          0.29956110       0.98653160       0.75806120
   104  C          0.70043890       0.98653160       0.24193880
   105  H          0.82580000       0.47340000       0.82830000
   106  H          0.17420000       0.47340000       0.17170000
   107  H          0.32580000       0.97340000       0.82830000
   108  H          0.67420000       0.97340000       0.17170000
   109  C          0.77826900       0.39988140       0.69091120
   110  C          0.22173100       0.39988140       0.30908880
   111  C          0.27826900       0.89988140       0.69091120
   112  C          0.72173100       0.89988140       0.30908880
   113  H          0.78980000       0.32690000       0.71500000
   114  H          0.21020000       0.32690000       0.28500000
   115  H          0.28980000       0.82690000       0.71500000
   116  H          0.71020000       0.82690000       0.28500000
   117  C          0.74003900       0.41940120       0.58821110
   118  C          0.25996100       0.41940120       0.41178890
   119  C          0.24003900       0.91940120       0.58821110
   120  C          0.75996100       0.91940120       0.41178890
   121  H          0.72560000       0.35940000       0.54240000
   122  H          0.27440000       0.35940000       0.45760000
   123  H          0.22560000       0.85940000       0.54240000
   124  H          0.77440000       0.85940000       0.45760000
   125  C          0.60804800       0.47302120       0.39261100
   126  C          0.39195200       0.47302120       0.60738900
   127  C          0.10804800       0.97302120       0.39261100
   128  C          0.89195200       0.97302120       0.60738900
   129  C          0.61467100       0.36962130       0.35411120
   130  C          0.38532900       0.36962130       0.64588880
   131  C          0.11467100       0.86962130       0.35411120
   132  C          0.88532900       0.86962130       0.64588880
   133  H          0.66720000       0.34290000       0.35750000
   134  H          0.33280000       0.34290000       0.64250000
   135  H          0.16720000       0.84290000       0.35750000
   136  H          0.83280000       0.84290000       0.64250000
   137  C          0.54475130       0.30516160       0.31061150
   138  C          0.45524870       0.30516160       0.68938850
   139  C          0.04475130       0.80516160       0.31061150
   140  C          0.95524870       0.80516160       0.68938850
   141  H          0.54960000       0.23560000       0.28290000
   142  H          0.45040000       0.23560000       0.71710000
   143  H          0.04960000       0.73560000       0.28290000
   144  H          0.95040000       0.73560000       0.71710000
   145  C          0.46849120       0.34202000       0.30775160
   146  C          0.53150880       0.34202000       0.69224840
   147  C          0.96849120       0.84202000       0.30775160
   148  C          0.03150880       0.84202000       0.69224840
   149  H          0.42080000       0.29850000       0.27720000
   150  H          0.57920000       0.29850000       0.72280000
   151  H          0.92080000       0.79850000       0.27720000
   152  H          0.07920000       0.79850000       0.72280000
   153  C          0.46188100       0.44222000       0.34939160
   154  C          0.53811900       0.44222000       0.65060840
   155  C          0.96188100       0.94222000       0.34939160
   156  C          0.03811900       0.94222000       0.65060840
   157  H          0.40960000       0.46640000       0.34940000
   158  H          0.59040000       0.46640000       0.65060000
   159  H          0.90960000       0.96640000       0.34940000
   160  H          0.09040000       0.96640000       0.65060000
   161  C          0.53076900       0.50841160       0.39130120
   162  C          0.46923100       0.50841160       0.60869880
   163  C          0.03076900       0.00841160       0.39130120
   164  C          0.96923100       0.00841160       0.60869880
   165  H          0.52530000       0.57770000       0.41910000
   166  H          0.47470000       0.57770000       0.58090000
   167  H          0.02530000       0.07770000       0.41910000
   168  H          0.97470000       0.07770000       0.58090000
   169  C          0.84635800       0.47725120       0.25126100
   170  C          0.15364200       0.47725120       0.74873900
   171  C          0.34635800       0.97725120       0.25126100
   172  C          0.65364200       0.97725120       0.74873900
   173  C          0.92541900       0.50691150       0.25465130
   174  C          0.07458100       0.50691150       0.74534870
   175  C          0.42541900       0.00691150       0.25465130
   176  C          0.57458100       0.00691150       0.74534870
   177  H          0.93550000       0.57930000       0.23710000
   178  H          0.06450000       0.57930000       0.76290000
   179  H          0.43550000       0.07930000       0.23710000
   180  H          0.56450000       0.07930000       0.76290000
   181  C         -0.01079900       0.43116190       0.28355150
   182  C          0.01079900       0.43116190       0.71644850
   183  C          0.48920100       0.93116190       0.28355150
   184  C          0.51079900       0.93116190       0.71644850
   185  H          0.04240000       0.45180000       0.28410000
   186  H          0.95760000       0.45180000       0.71590000
   187  H          0.54240000       0.95180000       0.28410000
   188  H          0.45760000       0.95180000       0.71590000
   189  C          0.97633120       0.32661190       0.31139160
   190  C          0.02366880       0.32661190       0.68860840
   191  C          0.47633120       0.82661190       0.31139160
   192  C          0.52366880       0.82661190       0.68860840
   193  H          0.02090000       0.27630000       0.33380000
   194  H          0.97910000       0.27630000       0.66620000
   195  H          0.52090000       0.77630000       0.33380000
   196  H          0.47910000       0.77630000       0.66620000
   197  C          0.89831110       0.29503160       0.30661140
   198  C          0.10168890       0.29503160       0.69338860
   199  C          0.39831110       0.79503160       0.30661140
   200  C          0.60168890       0.79503160       0.69338860
   201  H          0.88890000       0.22250000       0.32460000
   202  H          0.11110000       0.22250000       0.67540000
   203  H          0.38890000       0.72250000       0.32460000
   204  H          0.61110000       0.72250000       0.67540000
   205  C          0.83346900       0.36990130       0.27532110
   206  C          0.16653100       0.36990130       0.72467890
   207  C          0.33346900       0.86990130       0.27532110
   208  C          0.66653100       0.86990130       0.72467890
   209  H          0.77960000       0.34720000       0.27040000
   210  H          0.22040000       0.34720000       0.72960000
   211  H          0.27960000       0.84720000       0.27040000
   212  H          0.72040000       0.84720000       0.72960000
   213  C          0.73713800       0.56622130       0.10367100
   214  C          0.26286200       0.56622130       0.89632900
   215  C          0.23713800       0.06622130       0.10367100
   216  C          0.76286200       0.06622130       0.89632900
   217  C          0.71492110       0.66570150       0.05380130
   218  C          0.28507890       0.66570150       0.94619870
   219  C          0.21492110       0.16570150       0.05380130
   220  C          0.78507890       0.16570150       0.94619870
   221  H          0.72710000       0.73220000       0.09110000
   222  H          0.27290000       0.73220000       0.90890000
   223  H          0.22710000       0.23220000       0.09110000
   224  H          0.77290000       0.23220000       0.90890000
   225  C          0.67490120       0.66856190       0.94957860
   226  C          0.32509880       0.66856190       0.05042140
   227  C          0.17490120       0.16856190       0.94957860
   228  C          0.82509880       0.16856190       0.05042140
   229  H          0.65960000       0.73690000       0.91620000
   230  H          0.34040000       0.73690000       0.08380000
   231  H          0.15960000       0.23690000       0.91620000
   232  H          0.84040000       0.23690000       0.08380000
   233  C          0.65740110       0.57272000       0.89466880
   234  C          0.34259890       0.57272000       0.10533120
   235  C          0.15740110       0.07272000       0.89466880
   236  C          0.84259890       0.07272000       0.10533120
   237  H          0.63000000       0.57500000       0.82350000
   238  H          0.37000000       0.57500000       0.17650000
   239  H          0.13000000       0.07500000       0.82350000
   240  H          0.87000000       0.07500000       0.17650000
   241  C          0.67985110       0.47332000       0.94336870
   242  C          0.32014890       0.47332000       0.05663130
   243  C          0.17985110       0.97332000       0.94336870
   244  C          0.82014890       0.97332000       0.05663130
   245  H          0.66810000       0.40710000       0.90570000
   246  H          0.33190000       0.40710000       0.09430000
   247  H          0.16810000       0.90710000       0.90570000
   248  H          0.83190000       0.90710000       0.09430000
   249  C          0.71963100       0.47014160       0.04758120
   250  C          0.28036900       0.47014160       0.95241880
   251  C          0.21963100       0.97014160       0.04758120
   252  C          0.78036900       0.97014160       0.95241880
   253  H          0.73500000       0.40160000       0.08070000
   254  H          0.26500000       0.40160000       0.91930000
   255  H          0.23500000       0.90160000       0.08070000
   256  H          0.76500000       0.90160000       0.91930000
   257  C          0.50000000       0.22323000      -0.00000000
   258  C         -0.00000000       0.72323000      -0.00000000
   259  C          0.43733130       0.16502000       0.01570170
   260  C          0.56266870       0.16502000       0.98429830
   261  C          0.93733130       0.66502000       0.01570170
   262  C          0.06266870       0.66502000       0.98429830
   263  H          0.39330000       0.20340000       0.02660000
   264  H          0.60670000       0.20340000       0.97340000
   265  H          0.89330000       0.70340000       0.02660000
   266  H          0.10670000       0.70340000       0.97340000
   267  C          0.43714140       0.05298190       0.01597150
   268  C          0.56285860       0.05298190       0.98402850
   269  C          0.93714140       0.55298190       0.01597150
   270  C          0.06285860       0.55298190       0.98402850
   271  H          0.39310000       0.01510000       0.02730000
   272  H          0.60690000       0.01510000       0.97270000
   273  H          0.89310000       0.51510000       0.02730000
   274  H          0.10690000       0.51510000       0.97270000
   275  C          0.50000000      -0.00643000      -0.00000000
   276  C         -0.00000000       0.49357000      -0.00000000
   277  C          0.50000000       0.34814000      -0.00000000
   278  C         -0.00000000       0.84814000      -0.00000000
   279  C          0.50000000       0.87076000      -0.00000000
   280  C         -0.00000000       0.37076000      -0.00000000
