data_EZEDAP
_symmetry_space_group_name_H-M    'P1'
_symmetry_Int_Tables_number       1
loop_
_symmetry_equiv_pos_site_id
_symmetry_equiv_pos_as_xyz
1 x,y,z
_cell_length_a                   4.90453
_cell_length_b                   17.13421
_cell_length_c                   12.63976
_cell_angle_alpha                90.0
_cell_angle_beta                 90.9315
_cell_angle_gamma                90.0
loop_
_atom_site_label
_atom_site_type_symbol
_atom_site_fract_x
_atom_site_fract_y
_atom_site_fract_z
     1  N          0.56923000       0.47309800       0.60219100
     2  N          0.93077000       0.97309800       0.89780900
     3  N          0.43077000       0.52690200       0.39780900
     4  N          0.06923000       0.02690200       0.10219100
     5  C          0.37263000       0.52675900       0.58729120
     6  C          0.12737000       0.02675900       0.91270880
     7  C          0.62737000       0.47324100       0.41270880
     8  C          0.87263000       0.97324100       0.08729120
     9  C          0.22874000       0.55680100       0.67487130
    10  C          0.27126000       0.05680100       0.82512870
    11  C          0.77126000       0.44319900       0.32512870
    12  C          0.72874000       0.94319900       0.17487130
    13  H          0.27090000       0.53890000       0.74440000
    14  H          0.22910000       0.03890000       0.75560000
    15  H          0.72910000       0.46110000       0.25560000
    16  H          0.77090000       0.96110000       0.24440000
    17  C          0.03034000       0.61123110       0.65930150
    18  C          0.46966000       0.11123110       0.84069850
    19  C          0.96966000       0.38876890       0.34069850
    20  C          0.53034000       0.88876890       0.15930150
    21  H          0.93510000       0.63110000       0.71840000
    22  H          0.56490000       0.13110000       0.78160000
    23  H          0.06490000       0.36890000       0.28160000
    24  H          0.43510000       0.86890000       0.21840000
    25  C          0.69653000       0.44559900       0.51709120
    26  C          0.80347000       0.94559900       0.98290880
    27  C          0.30347000       0.55440100       0.48290880
    28  C          0.19653000       0.05440100       0.01709120
    29  C          0.90564000       0.38864100       0.52960140
    30  C          0.59436000       0.88864100       0.97039860
    31  C          0.09436000       0.61135900       0.47039860
    32  C          0.40564000       0.11135900       0.02960140
    33  H          0.95330000       0.36990000       0.59820000
    34  H          0.54670000       0.86990000       0.90180000
    35  H          0.04670000       0.63010000       0.40180000
    36  H          0.45330000       0.13010000       0.09820000
    37  C          0.03694000       0.36105100       0.44369160
    38  C          0.46306000       0.86105100       0.05630840
    39  C          0.96306000       0.63894900       0.55630840
    40  C          0.53694000       0.13894900       0.94369160
    41  H          0.17540000       0.32270000       0.45250000
    42  H          0.32460000       0.82270000       0.04750000
    43  H          0.82460000       0.67730000       0.54750000
    44  H          0.67540000       0.17730000       0.95250000
    45  O          0.74053000       0.43417800       0.80095100
    46  O          0.75947000       0.93417800       0.69904900
    47  O          0.25947000       0.56582200       0.19904900
    48  O          0.24053000       0.06582200       0.30095100
    49  H          0.68660000       0.44191600       0.73520000
    50  H          0.81340000       0.94191600       0.76480000
    51  H          0.31340000       0.55808400       0.26480000
    52  H          0.18660000       0.05808400       0.23520000
    53  F          0.35042000       0.33406600       0.71111700
    54  F          0.14958000       0.83406600       0.78888300
    55  F          0.64958000       0.66593400       0.28888300
    56  F          0.85042000       0.16593400       0.21111700
    57  F         -0.00112000       0.25622600       0.83397900
    58  F          0.50112000       0.75622600       0.66602100
    59  F          0.00112000       0.74377400       0.16602100
    60  F          0.49888000       0.24377400       0.33397900
    61  F          0.03002000       0.27108700       0.04879900
    62  F          0.46998000       0.77108700       0.45120100
    63  F          0.96998000       0.72891300       0.95120100
    64  F          0.53002000       0.22891300       0.54879900
    65  F          0.41923000       0.36459800       0.13705800
    66  F          0.08077000       0.86459800       0.36294200
    67  F          0.58077000       0.63540200       0.86294200
    68  F          0.91923000       0.13540200       0.63705800
    69  F          0.76182000       0.44587600       0.01470800
    70  F          0.73818000       0.94587600       0.48529200
    71  F          0.23818000       0.55412400       0.98529200
    72  F          0.26182000       0.05412400       0.51470800
    73  C          0.56283000       0.39347900       0.85879120
    74  C          0.93717000       0.89347900       0.64120880
    75  C          0.43717000       0.60652100       0.14120880
    76  C          0.06283000       0.10652100       0.35879120
    77  C          0.36644000       0.34346100       0.81657120
    78  C          0.13356000       0.84346100       0.68342880
    79  C          0.63356000       0.65653900       0.18342880
    80  C          0.86644000       0.15653900       0.31657120
    81  C          0.18794000       0.30303900       0.87859130
    82  C          0.31206000       0.80303900       0.62140870
    83  C          0.81206000       0.69696100       0.12140870
    84  C          0.68794000       0.19696100       0.37859130
    85  C          0.20374000       0.31034100       0.98751140
    86  C          0.29626000       0.81034100       0.51248860
    87  C          0.79626000       0.68965900       0.01248860
    88  C          0.70374000       0.18965900       0.48751140
    89  C          0.40034000       0.35782110       0.03161130
    90  C          0.09966000       0.85782110       0.46838870
    91  C          0.59966000       0.64217890       0.96838870
    92  C          0.90034000       0.14217890       0.53161130
    93  C          0.57574000       0.39901100       0.96887130
    94  C          0.92426000       0.89901100       0.53112870
    95  C          0.42426000       0.60098900       0.03112870
    96  C          0.07574000       0.10098900       0.46887130
