data_EZIBOG
_symmetry_space_group_name_H-M    'P1'
_symmetry_Int_Tables_number       1
loop_
_symmetry_equiv_pos_site_id
_symmetry_equiv_pos_as_xyz
1 x,y,z
_cell_length_a                   7.71404
_cell_length_b                   8.09254
_cell_length_c                   9.16264
_cell_angle_alpha                64.0453
_cell_angle_beta                 81.5504
_cell_angle_gamma                85.5324
loop_
_atom_site_label
_atom_site_type_symbol
_atom_site_fract_x
_atom_site_fract_y
_atom_site_fract_z
     1  C          0.49776000       0.71696000       0.75365000
     2  C          0.50224000       0.28304000       0.24635000
     3  C          0.68655000       0.52685000       0.67405000
     4  C          0.31345000       0.47315000       0.32595000
     5  C          0.78165000       0.70885000       0.61645000
     6  C          0.21835000       0.29115000       0.38355000
     7  C          0.83136000       0.79396000       0.43275000
     8  C          0.16864000       0.20604000       0.56725000
     9  H          0.72880000       0.80730000       0.38030000
    10  H          0.27120000       0.19270000       0.61970000
    11  H          0.91570000       0.71600000       0.40400000
    12  H          0.08430000       0.28400000       0.59600000
    13  H          0.88120000       0.91240000       0.39750000
    14  H          0.11880000       0.08760000       0.60250000
    15  C          0.94136000       0.67626000       0.70735000
    16  C          0.05864000       0.32374000       0.29265000
    17  H         -0.00090000       0.79060000       0.67250000
    18  H          0.00090000       0.20940000       0.32750000
    19  H          0.02100000       0.59140000       0.68360000
    20  H          0.97900000       0.40860000       0.31640000
    21  H          0.90420000       0.62610000       0.82290000
    22  H          0.09580000       0.37390000       0.17710000
    23  N          0.52815000       0.54134000       0.75644000
    24  N          0.47185000       0.45866000       0.24356000
    25  N          0.64365000       0.81505000       0.66624000
    26  N          0.35635000       0.18495000       0.33376000
    27  O          0.36604000       0.76354000       0.81574000
    28  O          0.63396000       0.23646000       0.18426000
    29  O          0.74474000       0.39494000       0.65134000
    30  O          0.25526000       0.60506000       0.34866000
    31  Br         0.35271500       0.36087500       0.85446500
    32  Br         0.64728500       0.63912500       0.14553500
    33  Br         0.67369500       0.04436500       0.65551500
    34  Br         0.32630500       0.95563500       0.34448500
    35  C          0.95104000       0.16795000      -0.01635000
    36  C          0.04896000       0.83205000       0.01635000
    37  H          0.91290000       0.28380000       0.97350000
    38  H          0.08710000       0.71620000       0.02650000
    39  C          0.17076000       0.96254000      -0.01375000
    40  C          0.82924000       0.03746000       0.01375000
    41  H          0.28930000       0.93220000       0.97790000
    42  H          0.71070000       0.06780000       0.02210000
    43  N          0.12245000       0.13165000       0.96864000
    44  N          0.87755000       0.86835000       0.03136000
