data_EZIFAV
_symmetry_space_group_name_H-M    'P1'
_symmetry_Int_Tables_number       1
loop_
_symmetry_equiv_pos_site_id
_symmetry_equiv_pos_as_xyz
1 x,y,z
_cell_length_a                   7.3914
_cell_length_b                   12.4208
_cell_length_c                   13.2158
_cell_angle_alpha                66.4889
_cell_angle_beta                 86.4701
_cell_angle_gamma                88.1131
loop_
_atom_site_label
_atom_site_type_symbol
_atom_site_fract_x
_atom_site_fract_y
_atom_site_fract_z
     1  Cl         0.70689130       0.04214700       0.06877900
     2  Cl         0.29310870       0.95785300       0.93122100
     3  N          0.79524000       0.38793000       0.10203000
     4  N          0.20476000       0.61207000       0.89797000
     5  N          0.76385000       0.43283000      -0.01123000
     6  N          0.23615000       0.56717000       0.01123000
     7  N          0.76073000       0.57802000       0.04322000
     8  N          0.23927000       0.42198000       0.95678000
     9  N          0.62564000       0.49762000       0.28372000
    10  N          0.37436000       0.50238000       0.71628000
    11  C          0.74374000       0.54613000       0.95557000
    12  C          0.25626000       0.45387000       0.04443000
    13  C          0.79184000       0.47473000       0.13173000
    14  C          0.20816000       0.52527000       0.86827000
    15  C          0.80545000       0.47183000       0.24383000
    16  C          0.19455000       0.52817000       0.75617000
    17  H          0.84700000       0.39500000       0.29320000
    18  H          0.15300000       0.60500000       0.70680000
    19  H          0.89190000       0.52970000       0.24200000
    20  H          0.10810000       0.47030000       0.75800000
    21  C          0.56054000       0.60143000       0.23323000
    22  C          0.43946000       0.39857000       0.76677000
    23  C          0.65204000       0.70033000       0.13953000
    24  C          0.34796000       0.29967000       0.86047000
    25  C          0.74524000       0.68973000       0.04963000
    26  C          0.25476000       0.31027000       0.95037000
    27  C          0.82604000       0.78703000       0.96567000
    28  C          0.17396000       0.21297000       0.03433000
    29  H          0.89020000       0.77830000       0.90660000
    30  H          0.10980000       0.22170000       0.09340000
    31  C          0.81124000       0.89523000       0.96977000
    32  C          0.18876000       0.10477000       0.03023000
    33  H          0.86200000       0.96060000       0.91270000
    34  H          0.13800000       0.03940000       0.08730000
    35  C          0.72114000       0.90653000       0.05853000
    36  C          0.27886000       0.09347000       0.94147000
    37  C          0.64274000       0.81113000       0.14333000
    38  C          0.35726000       0.18887000       0.85667000
    39  H          0.58330000       0.82070000       0.20330000
    40  H          0.41670000       0.17930000       0.79670000
    41  C          0.37824000       0.62833000       0.27293000
    42  C          0.62176000       0.37167000       0.72707000
    43  C          0.32495000       0.57944000       0.38363000
    44  C          0.67505000       0.42056000       0.61637000
    45  H          0.40200000       0.52700000       0.43370000
    46  H          0.59800000       0.47300000       0.56630000
    47  C          0.16067000       0.60685000       0.42074000
    48  C          0.83933000       0.39315000       0.57926000
    49  H          0.12740000       0.57410000       0.49580000
    50  H          0.87260000       0.42590000       0.50420000
    51  C          0.04456000       0.68244000       0.34764000
    52  C          0.95544000       0.31756000       0.65236000
    53  H          0.93350000       0.70210000       0.37310000
    54  H          0.06650000       0.29790000       0.62690000
    55  C          0.09235000       0.72873000       0.23764000
    56  C          0.90765000       0.27127000       0.76236000
    57  H          0.01220000       0.77800000       0.18750000
    58  H         -0.01220000       0.22200000       0.81250000
    59  C          0.26004000       0.70223000       0.20013000
    60  C          0.73996000       0.29777000       0.79987000
    61  H          0.29260000       0.73480000       0.12500000
    62  H          0.70740000       0.26520000       0.87500000
    63  C          0.70546000       0.62814000       0.84207000
    64  C          0.29454000       0.37186000       0.15793000
    65  H          0.66580000       0.58470000       0.80160000
    66  H          0.33420000       0.41530000       0.19840000
    67  H          0.81350000       0.67030000       0.80600000
    68  H          0.18650000       0.32970000       0.19400000
    69  H          0.61210000       0.68270000       0.84490000
    70  H          0.38790000       0.31730000       0.15510000
    71  F          0.12834000       0.28902000       0.41322000
    72  F          0.87166000       0.71098000       0.58678000
    73  F          0.70644000       0.16073000       0.53023000
    74  F          0.29356000       0.83927000       0.46977000
    75  O          0.31484000       0.82568000       0.75733000
    76  O          0.68516000       0.17432000       0.24267000
    77  O          0.03354000       0.88637000       0.71333000
    78  O          0.96646000       0.11363000       0.28667000
    79  C          0.27625000       0.01573000       0.62133000
    80  C          0.72375000       0.98427000       0.37867000
    81  C          0.16375000       0.10044000       0.55213000
    82  C          0.83625000       0.89956000       0.44787000
    83  H          0.03990000       0.08760000       0.55460000
    84  H          0.96010000       0.91240000       0.44540000
    85  C          0.23946000       0.20453000       0.47923000
    86  C          0.76054000       0.79547000       0.52077000
    87  C          0.41936000       0.22813000       0.47043000
    88  C          0.58064000       0.77187000       0.52957000
    89  H          0.46690000       0.29910000       0.42040000
    90  H          0.53310000       0.70090000       0.57960000
    91  C          0.52595000       0.14154000       0.53944000
    92  C          0.47405000       0.85846000       0.46056000
    93  C          0.46205000       0.03673000       0.61493000
    94  C          0.53795000       0.96327000       0.38507000
    95  H          0.54000000       0.98080000       0.66100000
    96  H          0.46000000       0.01920000       0.33900000
    97  C          0.19445000       0.90317000       0.70163000
    98  C          0.80555000       0.09683000       0.29837000
    99  H          0.25450000       0.75360000       0.80830000
   100  H          0.74550000       0.24640000       0.19170000
