data_EZOPEP
_symmetry_space_group_name_H-M    'P1'
_symmetry_Int_Tables_number       1
loop_
_symmetry_equiv_pos_site_id
_symmetry_equiv_pos_as_xyz
1 x,y,z
_cell_length_a                   6.60191
_cell_length_b                   7.92181
_cell_length_c                   18.16664
_cell_angle_alpha                90.0
_cell_angle_beta                 90.0
_cell_angle_gamma                90.0
loop_
_atom_site_label
_atom_site_type_symbol
_atom_site_fract_x
_atom_site_fract_y
_atom_site_fract_z
     1  S          0.01037600       0.87177500       0.62218300
     2  S          0.51037600       0.62822500       0.37781700
     3  S         -0.01037600       0.37177500       0.87781700
     4  S          0.48962400       0.12822500       0.12218300
     5  O          0.21202000       0.80441190       0.61049100
     6  O          0.71202000       0.69558810       0.38950900
     7  O          0.78798000       0.30441190       0.88950900
     8  O          0.28798000       0.19558810       0.11049100
     9  O          0.91703000       0.94542000       0.55712900
    10  O          0.41703000       0.55458000       0.44287100
    11  O          0.08297000       0.44542000       0.94287100
    12  O          0.58297000       0.05458000       0.05712900
    13  S          0.47232700       0.14221500       0.62825300
    14  S          0.97232700       0.35778500       0.37174700
    15  S          0.52767300       0.64221500       0.87174700
    16  S          0.02767300       0.85778500       0.12825300
    17  O          0.55753000       0.07202000       0.69525900
    18  O          0.05753000       0.42798000       0.30474100
    19  O          0.44247000       0.57202000       0.80474100
    20  O          0.94247000       0.92798000       0.19525900
    21  O          0.27372000       0.21838190       0.63728120
    22  O          0.77372000       0.28161810       0.36271880
    23  O          0.72628000       0.71838190       0.86271880
    24  O          0.22628000       0.78161810       0.13728120
    25  N          0.65152000       0.37224170       0.62521110
    26  N          0.15152000       0.12775830       0.37478890
    27  N          0.34848000       0.87224170       0.87478890
    28  N          0.84848000       0.62775830       0.12521110
    29  C          0.78573000       0.37803000       0.69073110
    30  C          0.28573000       0.12197000       0.30926890
    31  C          0.21427000       0.87803000       0.80926890
    32  C          0.71427000       0.62197000       0.19073110
    33  C          0.90523000       0.54653000       0.69014110
    34  C          0.40523000       0.95347000       0.30985890
    35  C          0.09477000       0.04653000       0.80985890
    36  C          0.59477000       0.45347000       0.19014110
    37  N          0.85312000       0.64197170       0.62295110
    38  N          0.35312000       0.85802830       0.37704890
    39  N          0.14688000       0.14197170       0.87704890
    40  N          0.64688000       0.35802830       0.12295110
    41  C          0.90313000       0.54073000       0.55661110
    42  C          0.40313000       0.95927000       0.44338890
    43  C          0.09687000       0.04073000       0.94338890
    44  C          0.59687000       0.45927000       0.05661110
    45  C          0.77733000       0.37683000       0.55746110
    46  C          0.27733000       0.12317000       0.44253890
    47  C          0.22267000       0.87683000       0.94253890
    48  C          0.72267000       0.62317000       0.05746110
    49  H          0.68850000       0.37040000       0.51530000
    50  H          0.18850000       0.12960000       0.48470000
    51  H          0.31150000       0.87040000       0.98470000
    52  H          0.81150000       0.62960000       0.01530000
    53  H          0.86500000       0.27820000       0.55780000
    54  H          0.36500000       0.22180000       0.44220000
    55  H          0.13500000       0.77820000       0.94220000
    56  H          0.63500000       0.72180000       0.05780000
    57  H          0.86970000       0.60990000       0.51320000
    58  H          0.36970000       0.89010000       0.48680000
    59  H          0.13030000       0.10990000       0.98680000
    60  H          0.63030000       0.39010000       0.01320000
    61  H          0.04670000       0.51260000       0.55800000
    62  H          0.54670000      -0.01260000       0.44200000
    63  H          0.95330000       0.01260000       0.94200000
    64  H          0.45330000       0.48740000       0.05800000
    65  C          0.63423000       0.68262000       0.62310150
    66  C          0.13423000       0.81738000       0.37689850
    67  C          0.36577000       0.18262000       0.87689850
    68  C          0.86577000       0.31738000       0.12310150
    69  C          0.51123000       0.51802000       0.62557120
    70  C          0.01123000       0.98198000       0.37442880
    71  C          0.48877000       0.01802000       0.87442880
    72  C         -0.01123000       0.48198000       0.12557120
    73  H          0.42480000       0.51010000       0.58250000
    74  H          0.92480000      -0.01010000       0.41750000
    75  H          0.57520000       0.01010000       0.91750000
    76  H          0.07520000       0.48990000       0.08250000
    77  H          0.43070000       0.51280000       0.67060000
    78  H          0.93070000      -0.01280000       0.32940000
    79  H          0.56930000       0.01280000       0.82940000
    80  H          0.06930000       0.48720000       0.17060000
    81  H          0.60640000       0.74680000       0.57790000
    82  H          0.10640000       0.75320000       0.42210000
    83  H          0.39360000       0.24680000       0.92210000
    84  H          0.89360000       0.25320000       0.07790000
    85  H          0.60980000       0.75010000       0.66610000
    86  H          0.10980000       0.74990000       0.33390000
    87  H          0.39020000       0.25010000       0.83390000
    88  H          0.89020000       0.24990000       0.16610000
    89  H          0.05060000       0.52810000       0.69090000
    90  H          0.55060000       0.97190000       0.30910000
    91  H          0.94940000       0.02810000       0.80910000
    92  H          0.44940000       0.47190000       0.19090000
    93  H          0.86320000       0.61350000       0.73170000
    94  H          0.36320000       0.88650000       0.26830000
    95  H          0.13680000       0.11350000       0.76830000
    96  H          0.63680000       0.38650000       0.23170000
    97  H          0.87620000       0.28090000       0.68840000
    98  H          0.37620000       0.21910000       0.31160000
    99  H          0.12380000       0.78090000       0.81160000
   100  H          0.62380000       0.71910000       0.18840000
   101  H          0.70380000       0.37310000       0.73540000
   102  H          0.20380000       0.12690000       0.26460000
   103  H          0.29620000       0.87310000       0.76460000
   104  H          0.79620000       0.62690000       0.23540000
