data_FABMEE
_symmetry_space_group_name_H-M    'P1'
_symmetry_Int_Tables_number       1
loop_
_symmetry_equiv_pos_site_id
_symmetry_equiv_pos_as_xyz
1 x,y,z
_cell_length_a                   8.06468
_cell_length_b                   11.762712
_cell_length_c                   15.355815
_cell_angle_alpha                89.4035
_cell_angle_beta                 76.6255
_cell_angle_gamma                89.0665
loop_
_atom_site_label
_atom_site_type_symbol
_atom_site_fract_x
_atom_site_fract_y
_atom_site_fract_z
     1  O          0.46734150       0.70924100       0.37542800
     2  O          0.53265850       0.29075900       0.62457200
     3  O          0.54480160       0.00333900       0.35852900
     4  O          0.45519840      -0.00333900       0.64147100
     5  O          0.35242160       0.90131900       0.45011900
     6  O          0.64757840       0.09868100       0.54988100
     7  O          0.44192000       0.52334890       0.37781110
     8  O          0.55808000       0.47665110       0.62218890
     9  C          0.47942000       0.91338860       0.38474110
    10  C          0.52058000       0.08661140       0.61525890
    11  C          0.66792000       0.80428860       0.26662120
    12  C          0.33208000       0.19571140       0.73337880
    13  H          0.72312700       0.87109900       0.24481200
    14  H          0.27687300       0.12890100       0.75518800
    15  C          0.63812000       0.60009860       0.25665120
    16  C          0.36188000       0.39990140       0.74334880
    17  C          0.71742000       0.69929860       0.22069110
    18  C          0.28258000       0.30070140       0.77930890
    19  C          0.54632000       0.80627870       0.33851110
    20  C          0.45368000       0.19372130       0.66148890
    21  C          0.51192000       0.60395860       0.33911130
    22  C          0.48808000       0.39604140       0.66088870
    23  C          0.83502000       0.69237840       0.14102130
    24  C          0.16498000       0.30762160       0.85897870
    25  H          0.89306900       0.75693800       0.11610600
    26  H          0.10693100       0.24306200       0.88389400
    27  C          0.67572000       0.49645850       0.21361140
    28  C          0.32428000       0.50354150       0.78638860
    29  H          0.62322200       0.43057100       0.23956300
    30  H          0.37677800       0.56942900       0.76043700
    31  C          0.86743000       0.59039830       0.09792140
    32  C          0.13257000       0.40960170       0.90207860
    33  H          0.94466600       0.58742000       0.04266100
    34  H          0.05533400       0.41258000       0.95733900
    35  C          0.78882000       0.49209830       0.13402140
    36  C          0.21118000       0.50790170       0.86597860
    37  H          0.81342600       0.42354700       0.10380600
    38  H          0.18657400       0.57645300       0.89619400
    39  H          0.30740000       0.97338200       0.47120000
    40  H          0.69260000       0.02661800       0.52880000
    41  O          0.12423180       0.91836110       0.85855900
    42  O          0.87576820       0.08163890       0.14144100
    43  O          0.17447180       0.88653100       0.07986800
    44  O          0.82552820       0.11346900       0.92013200
    45  O          0.08553190       0.76818110       0.95050900
    46  O          0.91446810       0.23181890       0.04949100
    47  O          0.20193000       0.88611150       0.21919110
    48  O          0.79807000       0.11388850       0.78080890
    49  C          0.12822000       0.86597140       0.93225120
    50  C          0.87178000       0.13402860       0.06774880
    51  C          0.19272000       0.93787140      -0.00211890
    52  C          0.80728000       0.06212860       0.00211890
    53  C          0.32362000       0.09890140       0.04948120
    54  C          0.67638000       0.90109860       0.95051880
    55  C          0.26312000       0.03901140       0.98119120
    56  C          0.73688000       0.96098860       0.01880880
    57  H          0.27391700       0.07202300       0.92489500
    58  H          0.72608300       0.92797700       0.07510500
    59  C          0.40233000       0.20415160       0.03575140
    60  C          0.59767000       0.79584840       0.96424860
    61  H          0.41521800       0.24050400       0.98056400
    62  H          0.58478200       0.75949600       0.01943600
    63  C          0.30442000       0.04842160       0.13306130
    64  C          0.69558000       0.95157840       0.86693870
    65  C          0.22473000       0.93805180       0.14978140
    66  C          0.77527000       0.06194820       0.85021860
    67  C          0.46153000       0.25532190       0.10313170
    68  C          0.53847000       0.74467810       0.89686830
    69  H          0.51455600       0.32536300       0.09249300
    70  H          0.48544400       0.67463700       0.90750700
    71  C          0.36483000       0.10202000       0.20132160
    72  C          0.63517000       0.89798000       0.79867840
    73  H          0.35112600       0.06754100       0.25725600
    74  H          0.64887400       0.93245900       0.74274400
    75  C          0.44313000       0.20442000       0.18512180
    76  C          0.55687000       0.79558000       0.81487820
    77  H          0.48400600       0.23957400       0.22978500
    78  H          0.51599400       0.76042600       0.77021500
    79  H          0.10540000       0.86720000       0.81471700
    80  H          0.89460000       0.13280000       0.18528300
    81  N          0.22528180       0.09687110       0.50419100
    82  N          0.77471820       0.90312890       0.49580900
    83  N          0.08752000       0.77750120       0.73985100
    84  N          0.91248000       0.22249880       0.26014900
    85  C          0.07922000       0.31255130       0.53570100
    86  C          0.92078000       0.68744870       0.46429900
    87  C         -0.01212000       0.42555120       0.54660110
    88  C          0.01212000       0.57444880       0.45339890
    89  H          0.90316600       0.42810500       0.60374900
    90  H          0.09683400       0.57189500       0.39625100
    91  C          0.09692000       0.53427120       0.53378100
    92  C          0.90308000       0.46572880       0.46621900
    93  H          0.21628000       0.51287000       0.50889500
    94  H          0.78372000       0.48713000       0.49110500
    95  C          0.08882000       0.61599130       0.60893110
    96  C          0.91118000       0.38400870       0.39106890
    97  C          0.00732000       0.21778140       0.58108120
    98  C         -0.00732000       0.78221860       0.41891880
    99  H          0.90569100       0.22503700       0.62422400
   100  H          0.09430900       0.77496300       0.37577600
   101  C          0.19302000       0.70989140       0.59460120
   102  C          0.80698000       0.29010860       0.40539880
   103  H          0.26762300       0.71987200       0.53912600
   104  H          0.73237700       0.28012800       0.46087400
   105  C          0.23062000       0.29600140       0.47580120
   106  C          0.76938000       0.70399860       0.52419880
   107  H          0.28777600       0.35735200       0.44454300
   108  H          0.71222400       0.64264800       0.55545700
   109  C          0.98368000       0.60627150       0.69147120
   110  C          0.01632000       0.39372850       0.30852880
   111  H          0.91009700       0.54526300       0.70515200
   112  H          0.08990300       0.45473700       0.29484800
   113  C          0.29862000       0.18775140       0.46178120
   114  C          0.70138000       0.81224860       0.53821880
   115  H          0.40177400       0.17812400       0.42021300
   116  H          0.59822600       0.82187600       0.57978700
   117  C         -0.01272000       0.68794160       0.75496120
   118  C          0.01272000       0.31205840       0.24503880
   119  H          0.91545200       0.67954700       0.81141700
   120  H          0.08454800       0.32045300       0.18858300
   121  C          0.08272000       0.11247140       0.56381130
   122  C          0.91728000       0.88752860       0.43618870
   123  H          0.03047200       0.05000200       0.59572700
   124  H          0.96952800       0.94999800       0.40427300
   125  C          0.18862000       0.78840150       0.66026130
   126  C          0.81138000       0.21159850       0.33973870
   127  H          0.25924100       0.85109500       0.64803600
   128  H          0.74075900       0.14890500       0.35196400
   129  O          0.23503000       0.63835180       0.21904160
   130  O          0.76497000       0.36164820       0.78095840
   131  H          0.23057100       0.70804200       0.21826400
   132  H          0.76942900       0.29195800       0.78173600
   133  C          0.29444000       0.59883000       0.13282000
   134  C          0.70556000       0.40117000       0.86718000
   135  H          0.24028500       0.64076800       0.09282000
   136  H          0.75971500       0.35923200       0.90718000
   137  H          0.26859700       0.51957500       0.13076900
   138  H          0.73140300       0.48042500       0.86923100
   139  H          0.41552700       0.60844300       0.11486400
   140  H          0.58447300       0.39155700       0.88513600
