data_FABWOV
_symmetry_space_group_name_H-M    'P1'
_symmetry_Int_Tables_number       1
loop_
_symmetry_equiv_pos_site_id
_symmetry_equiv_pos_as_xyz
1 x,y,z
_cell_length_a                   15.6297
_cell_length_b                   5.583711
_cell_length_c                   24.2658
_cell_angle_alpha                90.0
_cell_angle_beta                 108.502
_cell_angle_gamma                90.0
loop_
_atom_site_label
_atom_site_type_symbol
_atom_site_fract_x
_atom_site_fract_y
_atom_site_fract_z
     1  Cl         0.80989000       0.10254000       0.66619000
     2  Cl         0.69011000       0.60254000       0.83381000
     3  Cl         0.19011000       0.89746000       0.33381000
     4  Cl         0.30989000       0.39746000       0.16619000
     5  Cl         0.68191000       0.63553000       0.21291000
     6  Cl         0.81809000       0.13553000       0.28709000
     7  Cl         0.31809000       0.36447000       0.78709000
     8  Cl         0.18191000       0.86447000       0.71291000
     9  O          0.30372000       0.48857000       0.94128000
    10  O          0.19628000      -0.01143000       0.55872000
    11  O          0.69628000       0.51143000       0.05872000
    12  O          0.80372000       0.01143000       0.44128000
    13  N          0.16662000       0.06807000       0.00882000
    14  N          0.33338000       0.56807000       0.49118000
    15  N          0.83338000       0.93193000       0.99118000
    16  N          0.66662000       0.43193000       0.50882000
    17  C          0.26153000      -0.00971000       0.02812000
    18  C          0.23847000       0.49029000       0.47188000
    19  C          0.73847000       0.00971000       0.97188000
    20  C          0.76153000       0.50971000       0.52812000
    21  C          0.31843000       0.15628000       0.00432000
    22  C          0.18157000       0.65628000       0.49568000
    23  C          0.68157000       0.84372000      -0.00432000
    24  C          0.81843000       0.34372000       0.50432000
    25  C          0.26963000       0.30891000       0.95338000
    26  C          0.23037000       0.80891000       0.54662000
    27  C          0.73037000       0.69109000       0.04662000
    28  C          0.76963000       0.19109000       0.45338000
    29  C          0.17833000       0.22538000       0.91708000
    30  C          0.32167000       0.72538000       0.58292000
    31  C          0.82167000       0.77462000       0.08292000
    32  C          0.67833000       0.27462000       0.41708000
    33  C          0.12963000       0.05139000       0.94498000
    34  C          0.37037000       0.55139000       0.55502000
    35  C          0.87037000       0.94861000       0.05502000
    36  C          0.62963000       0.44861000       0.44498000
    37  C          0.14573000       0.30559000       0.86288000
    38  C          0.35427000       0.80559000       0.63712000
    39  C          0.85427000       0.69441000       0.13712000
    40  C          0.64573000       0.19441000       0.36288000
    41  C          0.40803000       0.16658000       0.02372000
    42  C          0.09197000       0.66658000       0.47628000
    43  C          0.59197000       0.83342000       0.97628000
    44  C          0.90803000       0.33342000       0.52372000
    45  C          0.47303000       0.03089000       0.06892000
    46  C          0.02697000       0.53089000       0.43108000
    47  C          0.52697000       0.96911000       0.93108000
    48  C          0.97303000       0.46911000       0.56892000
    49  C          0.56133000       0.11751000       0.09342000
    50  C          0.93867000       0.61751000       0.40658000
    51  C          0.43867000       0.88249000       0.90658000
    52  C          0.06133000       0.38249000       0.59342000
    53  C          0.62513000       0.00061100       0.13722000
    54  C          0.87487000       0.50061100       0.36278000
    55  C          0.37487000      -0.00061100       0.86278000
    56  C          0.12513000       0.49938900       0.63722000
    57  C          0.60213000       0.78561100       0.15662000
    58  C          0.89787000       0.28561100       0.34338000
    59  C          0.39787000       0.21438900       0.84338000
    60  C          0.10213000       0.71438900       0.65662000
    61  C          0.51813000       0.68741000       0.13292000
    62  C          0.98187000       0.18741000       0.36708000
    63  C          0.48187000       0.31259000       0.86708000
    64  C          0.01813000       0.81259000       0.63292000
    65  C          0.45493000       0.80881000       0.08962000
    66  C          0.04507000       0.30881000       0.41038000
    67  C          0.54507000       0.19119000       0.91038000
    68  C          0.95493000       0.69119000       0.58962000
    69  C          0.06283000       0.24881000       0.81658000
    70  C          0.43717000       0.74881000       0.68342000
    71  C          0.93717000       0.75119000       0.18342000
    72  C          0.56283000       0.25119000       0.31658000
    73  C          0.03394000       0.39701200       0.76887000
    74  C          0.46606000       0.89701200       0.73113000
    75  C          0.96606000       0.60298800       0.23113000
    76  C          0.53394000       0.10298800       0.26887000
    77  C          0.95765000       0.35731300       0.72427000
    78  C          0.54235000       0.85731300       0.77573000
    79  C          0.04235000       0.64268700       0.27573000
    80  C          0.45765000       0.14268700       0.22427000
    81  C          0.90506000       0.16441300       0.72428000
    82  C          0.59494000       0.66441300       0.77572000
    83  C          0.09494000       0.83558700       0.27572000
    84  C          0.40506000       0.33558700       0.22428000
    85  C          0.93176000       0.00941200       0.76967000
    86  C          0.56824000       0.50941200       0.73033000
    87  C          0.06824000      -0.00941200       0.23033000
    88  C          0.43176000       0.49058800       0.26967000
    89  C          0.00924000       0.04971100       0.81568000
    90  C          0.49076000       0.54971100       0.68432000
    91  C         -0.00924000       0.95028900       0.18432000
    92  C          0.50924000       0.45028900       0.31568000
    93  H          0.26550000       0.82820000       0.01470000
    94  H          0.23450000       0.32820000       0.48530000
    95  H          0.73450000       0.17180000       0.98530000
    96  H          0.76550000       0.67180000       0.51470000
    97  H          0.28450000      -0.00990000       0.07020000
    98  H          0.21550000       0.49010000       0.42980000
    99  H          0.71550000       0.00990000       0.92980000
   100  H          0.78450000       0.50990000       0.57020000
   101  H          0.06570000       0.08830000       0.93250000
   102  H          0.43430000       0.58830000       0.56750000
   103  H          0.93430000       0.91170000       0.06750000
   104  H          0.56570000       0.41170000       0.43250000
   105  H          0.13690000       0.88930000       0.93270000
   106  H          0.36310000       0.38930000       0.56730000
   107  H          0.86310000       0.11070000       0.06730000
   108  H          0.63690000       0.61070000       0.43270000
   109  H          0.18220000       0.41740000       0.85280000
   110  H          0.31780000       0.91740000       0.64720000
   111  H          0.81780000       0.58260000       0.14720000
   112  H          0.68220000       0.08260000       0.35280000
   113  H          0.43310000       0.27950000       0.00520000
   114  H          0.06690000       0.77950000       0.49480000
   115  H          0.56690000       0.72050000      -0.00520000
   116  H          0.93310000       0.22050000       0.50520000
   117  H          0.57720000       0.26000000       0.07940000
   118  H          0.92280000       0.76000000       0.42060000
   119  H          0.42280000       0.74000000       0.92060000
   120  H          0.07720000       0.24000000       0.57940000
   121  H          0.68250000       0.06470000       0.15350000
   122  H          0.81750000       0.56470000       0.34650000
   123  H          0.31750000       0.93530000       0.84650000
   124  H          0.18250000       0.43530000       0.65350000
   125  H          0.50420000       0.54050000       0.14600000
   126  H         -0.00420000       0.04050000       0.35400000
   127  H          0.49580000       0.45950000       0.85400000
   128  H          0.00420000       0.95950000       0.64600000
   129  H          0.39800000       0.74130000       0.07350000
   130  H          0.10200000       0.24130000       0.42650000
   131  H          0.60200000       0.25870000       0.92650000
   132  H          0.89800000       0.75870000       0.57350000
   133  H          0.06850000       0.53080000       0.76740000
   134  H          0.43150000       0.03080000       0.73260000
   135  H          0.93150000       0.46920000       0.23260000
   136  H          0.56850000       0.96920000       0.26740000
   137  H          0.94120000       0.46360000       0.69320000
   138  H          0.55880000       0.96360000       0.80680000
   139  H          0.05880000       0.53640000       0.30680000
   140  H          0.44120000       0.03640000       0.19320000
   141  H          0.89740000       0.87370000       0.76980000
   142  H          0.60260000       0.37370000       0.73020000
   143  H          0.10260000       0.12630000       0.23020000
   144  H          0.39740000       0.62630000       0.26980000
   145  H          0.02570000       0.94200000       0.84650000
   146  H          0.47430000       0.44200000       0.65350000
   147  H          0.97430000       0.05800000       0.15350000
   148  H          0.52570000       0.55800000       0.34650000
   149  H          0.13540000      -0.00460000       0.03280000
   150  H          0.36460000       0.49540000       0.46720000
   151  H          0.86460000       0.00460000       0.96720000
   152  H          0.63540000       0.50460000       0.53280000
   153  O          0.07452000       0.80257000       0.05921000
   154  O          0.42548000       0.30257000       0.44079000
   155  O          0.92548000       0.19743000       0.94079000
   156  O          0.57452000       0.69743000       0.55921000
   157  O          0.15252000       0.51786000       0.03522000
   158  O          0.34748000       0.01786000       0.46478000
   159  O          0.84748000       0.48214000       0.96478000
   160  O          0.65252000      -0.01786000       0.53522000
   161  C          0.09953000       0.58691000       0.06022000
   162  C          0.40047000       0.08691000       0.43978000
   163  C          0.90047000       0.41309000       0.93978000
   164  C          0.59953000       0.91309000       0.56022000
   165  C          0.06013000       0.41269000       0.09362000
   166  C          0.43987000       0.91269000       0.40638000
   167  C          0.93987000       0.58731000       0.90638000
   168  C          0.56013000       0.08731000       0.59362000
   169  H          0.08450000       0.85060000       0.09260000
   170  H          0.41550000       0.35060000       0.40740000
   171  H          0.91550000       0.14940000       0.90740000
   172  H          0.58450000       0.64940000       0.59260000
   173  H          0.08860000       0.25920000       0.09530000
   174  H          0.41140000       0.75920000       0.40470000
   175  H          0.91140000       0.74080000       0.90470000
   176  H          0.58860000       0.24080000       0.59530000
   177  H         -0.00360000       0.39670000       0.07440000
   178  H          0.50360000       0.89670000       0.42560000
   179  H          0.00360000       0.60330000       0.92560000
   180  H          0.49640000       0.10330000       0.57440000
   181  H          0.07040000       0.47150000       0.13240000
   182  H          0.42960000       0.97150000       0.36760000
   183  H          0.92960000       0.52850000       0.86760000
   184  H          0.57040000       0.02850000       0.63240000
