data_FADCIW
_symmetry_space_group_name_H-M    'P1'
_symmetry_Int_Tables_number       1
loop_
_symmetry_equiv_pos_site_id
_symmetry_equiv_pos_as_xyz
1 x,y,z
_cell_length_a                   7.5782
_cell_length_b                   9.4553
_cell_length_c                   7.1832
_cell_angle_alpha                94.022
_cell_angle_beta                 107.752
_cell_angle_gamma                88.592
loop_
_atom_site_label
_atom_site_type_symbol
_atom_site_fract_x
_atom_site_fract_y
_atom_site_fract_z
     1  O          0.67832000       0.13201000       0.41032000
     2  O          0.32168000       0.86799000       0.58968000
     3  C          0.82822000       0.07112000       0.45462000
     4  C          0.17178000       0.92888000       0.54538000
     5  C          0.83612000       0.91688000       0.39932000
     6  C          0.16388000       0.08312000       0.60068000
     7  C          0.00042000       0.15062000       0.56172000
     8  C         -0.00042000       0.84938000       0.43828000
     9  C          0.65323000       0.84648000       0.29763000
    10  C          0.34677000       0.15352000       0.70237000
    11  C         -0.02157000       0.30442000       0.61663000
    12  C          0.02157000       0.69558000       0.38337000
    13  H          0.56850000       0.87370000       0.35850000
    14  H          0.43150000       0.12630000       0.64150000
    15  H          0.66460000       0.74560000       0.28050000
    16  H          0.33540000       0.25440000       0.71950000
    17  H          0.61260000       0.84260000       0.14260000
    18  H          0.38740000       0.15740000       0.85740000
    19  H          0.04740000       0.33430000       0.73740000
    20  H          0.95260000       0.66570000       0.26260000
    21  H          0.85350000       0.32330000       0.62850000
    22  H          0.14650000       0.67670000       0.37150000
    23  H          0.01650000       0.37140000       0.54050000
    24  H         -0.01650000       0.62860000       0.45950000
    25  O          0.05552000       0.27781000       0.15222000
    26  O          0.94448000       0.72219000       0.84778000
    27  C          0.03232000       0.13922000       0.07832000
    28  C          0.96768000       0.86078000       0.92168000
    29  C          0.17712000       0.04252000       0.11042000
    30  C          0.82288000       0.95748000       0.88958000
    31  C          0.85528000       0.09622000       0.96738000
    32  C          0.14472000       0.90378000       0.03262000
    33  H          0.16940000       0.28220000       0.21430000
    34  H          0.83060000       0.71780000       0.78570000
    35  H          0.30430000       0.06720000       0.19430000
    36  H          0.69570000       0.93280000       0.80570000
    37  H          0.76070000       0.16320000       0.95170000
    38  H          0.23930000       0.83680000       0.04830000
    39  O          0.42912000       0.36151000       0.29652000
    40  O          0.57088000       0.63849000       0.70348000
    41  C          0.46822000       0.43001000       0.15012000
    42  C          0.53178000       0.56999000       0.84988000
    43  C          0.63692000       0.41552000       0.11252000
    44  C          0.36308000       0.58448000       0.88748000
    45  C          0.33142000       0.51572000       0.03702000
    46  C          0.66858000       0.48428000       0.96298000
    47  H          0.51750000       0.29930000       0.34150000
    48  H          0.48250000       0.70070000       0.65850000
    49  H          0.73330000       0.35420000       0.18730000
    50  H          0.26670000       0.64580000       0.81270000
    51  H          0.21730000       0.52420000       0.06830000
    52  H          0.78270000       0.47580000       0.93170000
