data_FADGEY
_symmetry_space_group_name_H-M    'P1'
_symmetry_Int_Tables_number       1
loop_
_symmetry_equiv_pos_site_id
_symmetry_equiv_pos_as_xyz
1 x,y,z
_cell_length_a                   7.748915
_cell_length_b                   28.0276
_cell_length_c                   3.87028
_cell_angle_alpha                90.0
_cell_angle_beta                 90.0
_cell_angle_gamma                90.0
loop_
_atom_site_label
_atom_site_type_symbol
_atom_site_fract_x
_atom_site_fract_y
_atom_site_fract_z
     1  C          0.65063000       0.34739800       0.53446000
     2  C          0.34937000       0.65260200       0.53446000
     3  C          0.84937000       0.84739800       0.46554000
     4  C          0.15063000       0.15260200       0.46554000
     5  C          0.70203000       0.39327800       0.62357000
     6  C          0.29797000       0.60672200       0.62357000
     7  C          0.79797000       0.89327800       0.37643000
     8  C          0.20203000       0.10672200       0.37643000
     9  H          0.81780000       0.40320000       0.58820000
    10  H          0.18220000       0.59680000       0.58820000
    11  H          0.68220000       0.90320000       0.41180000
    12  H          0.31780000       0.09680000       0.41180000
    13  C          0.58323000       0.42393800       0.76287000
    14  C          0.41677000       0.57606200       0.76287000
    15  C          0.91677000       0.92393800       0.23713000
    16  C          0.08323000       0.07606200       0.23713000
    17  H          0.61930000       0.45520000       0.82400000
    18  H          0.38070000       0.54480000       0.82400000
    19  H          0.88070000       0.95520000       0.17600000
    20  H          0.11930000       0.04480000       0.17600000
    21  C          0.36903000       0.36742800       0.73517000
    22  C          0.63097000       0.63257200       0.73517000
    23  C          0.13097000       0.86742800       0.26483000
    24  C          0.86903000       0.13257200       0.26483000
    25  H          0.25260000       0.35840000       0.77540000
    26  H          0.74740000       0.64160000       0.77540000
    27  H          0.24740000       0.85840000       0.22460000
    28  H          0.75260000       0.14160000       0.22460000
    29  C          0.48123000       0.33453800       0.59497000
    30  C          0.51877000       0.66546200       0.59497000
    31  C          0.01877000       0.83453800       0.40503000
    32  C          0.98123000       0.16546200       0.40503000
    33  H          0.44230000       0.30330000       0.54030000
    34  H          0.55770000       0.69670000       0.54030000
    35  H          0.05770000       0.80330000       0.45970000
    36  H          0.94230000       0.19670000       0.45970000
    37  C          0.77473000       0.31076800       0.39266000
    38  C          0.22527000       0.68923200       0.39266000
    39  C          0.72527000       0.81076800       0.60734000
    40  C          0.27473000       0.18923200       0.60734000
    41  N          0.91683000       0.32784700       0.24495000
    42  N          0.08317000       0.67215300       0.24495000
    43  N          0.58317000       0.82784700       0.75505000
    44  N          0.41683000       0.17215300       0.75505000
    45  N          0.41953000       0.41176600       0.81615000
    46  N          0.58047000       0.58823400       0.81615000
    47  N          0.08047000       0.91176600       0.18385000
    48  N          0.91953000       0.08823400       0.18385000
    49  N          0.04483000       0.29855700       0.09357000
    50  N          0.95517000       0.70144300       0.09357000
    51  N          0.45517000       0.79855700       0.90643000
    52  N          0.54483000       0.20144300       0.90643000
    53  O          0.74392000       0.26797500       0.41695000
    54  O          0.25608000       0.73202500       0.41695000
    55  O          0.75608000       0.76797500       0.58305000
    56  O          0.24392000       0.23202500       0.58305000
    57  H          0.93440000       0.35831100       0.21290000
    58  H          0.06560000       0.64168900       0.21290000
    59  H          0.56560000       0.85831100       0.78710000
    60  H          0.43440000       0.14168900       0.78710000
    61  H         -0.01060000       0.27841100       0.94510000
    62  H          0.01060000       0.72158900       0.94510000
    63  H          0.51060000       0.77841100       0.05490000
    64  H          0.48940000       0.22158900       0.05490000
    65  H          0.09340000       0.27961100       0.28390000
    66  H          0.90660000       0.72038900       0.28390000
    67  H          0.40660000       0.77961100       0.71610000
    68  H          0.59340000       0.22038900       0.71610000
    69  C          0.09573000       0.46356700       0.21436000
    70  C          0.90427000       0.53643300       0.21436000
    71  C          0.40427000       0.96356700       0.78564000
    72  C          0.59573000       0.03643300       0.78564000
    73  C          0.00000000       0.50000000       0.43238000
    74  C          0.50000000      -0.00000000       0.56762000
    75  H          0.08360000       0.51680000       0.58290000
    76  H          0.91640000       0.48320000       0.58290000
    77  H          0.41640000       0.01680000       0.41710000
    78  H          0.58360000       0.98320000       0.41710000
    79  O          0.24802000       0.47635500       0.12155000
    80  O          0.75198000       0.52364500       0.12155000
    81  O          0.25198000       0.97635500       0.87845000
    82  O          0.74802000       0.02364500       0.87845000
    83  H          0.29880000       0.45310000       0.02900000
    84  H          0.70120000       0.54690000       0.02900000
    85  H          0.20120000       0.95310000      -0.02900000
    86  H          0.79880000       0.04690000      -0.02900000
    87  O          0.02942000       0.42523500       0.13565000
    88  O          0.97058000       0.57476500       0.13565000
    89  O          0.47058000       0.92523500       0.86435000
    90  O          0.52942000       0.07476500       0.86435000
