data_FAFSEL
_symmetry_space_group_name_H-M    'P1'
_symmetry_Int_Tables_number       1
loop_
_symmetry_equiv_pos_site_id
_symmetry_equiv_pos_as_xyz
1 x,y,z
_cell_length_a                   7.14301
_cell_length_b                   16.51385
_cell_length_c                   25.46407
_cell_angle_alpha                90.0
_cell_angle_beta                 90.0
_cell_angle_gamma                90.0
loop_
_atom_site_label
_atom_site_type_symbol
_atom_site_fract_x
_atom_site_fract_y
_atom_site_fract_z
     1  S          0.01372700       0.39150300       0.11893200
     2  S          0.48627300       0.60849700       0.61893200
     3  S          0.51372700       0.10849700       0.88106800
     4  S         -0.01372700       0.89150300       0.38106800
     5  S         -0.01372700       0.60849700       0.88106800
     6  S          0.51372700       0.39150300       0.38106800
     7  S          0.48627300       0.89150300       0.11893200
     8  S          0.01372700       0.10849700       0.61893200
     9  S          0.07807800       0.27104400       0.03487200
    10  S          0.42192200       0.72895600       0.53487200
    11  S          0.57807800       0.22895600       0.96512800
    12  S          0.92192200       0.77104400       0.46512800
    13  S          0.92192200       0.72895600       0.96512800
    14  S          0.57807800       0.27104400       0.46512800
    15  S          0.42192200       0.77104400       0.03487200
    16  S          0.07807800       0.22895600       0.53487200
    17  S          0.94638800       0.12711400       0.11410200
    18  S          0.55361200       0.87288600       0.61410200
    19  S          0.44638800       0.37288600       0.88589800
    20  S          0.05361200       0.62711400       0.38589800
    21  S          0.05361200       0.87288600       0.88589800
    22  S          0.44638800       0.12711400       0.38589800
    23  S          0.55361200       0.62711400       0.11410200
    24  S          0.94638800       0.37288600       0.61410200
    25  S          0.89087800       0.24798400       0.19816200
    26  S          0.60912200       0.75201600       0.69816200
    27  S          0.39087800       0.25201600       0.80183800
    28  S          0.10912200       0.74798400       0.30183800
    29  S          0.10912200       0.75201600       0.80183800
    30  S          0.39087800       0.24798400       0.30183800
    31  S          0.60912200       0.74798400       0.19816200
    32  S          0.89087800       0.25201600       0.69816200
    33  C          0.10943000       0.42522140       0.05999900
    34  C          0.39057000       0.57477860       0.55999900
    35  C          0.60943000       0.07477860       0.94000100
    36  C          0.89057000       0.92522140       0.44000100
    37  C          0.89057000       0.57477860       0.94000100
    38  C          0.60943000       0.42522140       0.44000100
    39  C          0.39057000       0.92522140       0.05999900
    40  C          0.10943000       0.07477860       0.55999900
    41  H          0.14140000       0.48050000       0.05500000
    42  H          0.35860000       0.51950000       0.55500000
    43  H          0.64140000       0.01950000       0.94500000
    44  H          0.85860000       0.98050000       0.44500000
    45  H          0.85860000       0.51950000       0.94500000
    46  H          0.64140000       0.48050000       0.44500000
    47  H          0.35860000       0.98050000       0.05500000
    48  H          0.14140000       0.01950000       0.55500000
    49  C          0.13613000       0.37108140       0.02231900
    50  C          0.36387000       0.62891860       0.52231900
    51  C          0.63613000       0.12891860       0.97768100
    52  C          0.86387000       0.87108140       0.47768100
    53  C          0.86387000       0.62891860       0.97768100
    54  C          0.63613000       0.37108140       0.47768100
    55  C          0.36387000       0.87108140       0.02231900
    56  C          0.13613000       0.12891860       0.52231900
    57  H          0.18570000       0.38670000       0.98920000
    58  H          0.31430000       0.61330000       0.48920000
    59  H          0.68570000       0.11330000       0.01080000
    60  H          0.81430000       0.88670000       0.51080000
    61  H          0.81430000       0.61330000       0.01080000
    62  H          0.68570000       0.38670000       0.51080000
    63  H          0.31430000       0.88670000       0.98920000
    64  H          0.18570000       0.11330000       0.48920000
    65  C          0.01103000       0.28907120       0.10010800
    66  C          0.48897000       0.71092880       0.60010800
    67  C          0.51103000       0.21092880       0.89989200
    68  C         -0.01103000       0.78907120       0.39989200
    69  C         -0.01103000       0.71092880       0.89989200
    70  C          0.51103000       0.28907120       0.39989200
    71  C          0.48897000       0.78907120       0.10010800
    72  C          0.01103000       0.21092880       0.60010800
    73  C          0.95893000       0.22921130       0.13300800
    74  C          0.54107000       0.77078870       0.63300800
    75  C          0.45893000       0.27078870       0.86699200
    76  C          0.04107000       0.72921130       0.36699200
    77  C          0.04107000       0.77078870       0.86699200
    78  C          0.45893000       0.22921130       0.36699200
    79  C          0.54107000       0.72921130       0.13300800
    80  C          0.95893000       0.27078870       0.63300800
    81  C          0.87853000       0.09267150       0.17550100
    82  C          0.62147000       0.90732850       0.67550100
    83  C          0.37853000       0.40732850       0.82449900
    84  C          0.12147000       0.59267150       0.32449900
    85  C          0.12147000       0.90732850       0.82449900
    86  C          0.37853000       0.09267150       0.32449900
    87  C          0.62147000       0.59267150       0.17550100
    88  C          0.87853000       0.40732850       0.67550100
    89  H          0.85960000       0.03660000       0.18180000
    90  H          0.64040000       0.96340000       0.68180000
    91  H          0.35960000       0.46340000       0.81820000
    92  H          0.14040000       0.53660000       0.31820000
    93  H          0.14040000       0.96340000       0.81820000
    94  H          0.35960000       0.03660000       0.31820000
    95  H          0.64040000       0.53660000       0.18180000
    96  H          0.85960000       0.46340000       0.68180000
    97  C          0.85393000       0.14630150       0.21309100
    98  C          0.64607000       0.85369850       0.71309100
    99  C          0.35393000       0.35369850       0.78690900
   100  C          0.14607000       0.64630150       0.28690900
   101  C          0.14607000       0.85369850       0.78690900
   102  C          0.35393000       0.14630150       0.28690900
   103  C          0.64607000       0.64630150       0.21309100
   104  C          0.85393000       0.35369850       0.71309100
   105  H          0.81710000       0.13000000       0.24740000
   106  H          0.68290000       0.87000000       0.74740000
   107  H          0.31710000       0.37000000       0.75260000
   108  H          0.18290000       0.63000000       0.25260000
   109  H          0.18290000       0.87000000       0.75260000
   110  H          0.31710000       0.13000000       0.25260000
   111  H          0.68290000       0.63000000       0.24740000
   112  H          0.81710000       0.37000000       0.74740000
   113  N          0.53222000       0.27903110       0.09053700
   114  N          0.96778000       0.72096890       0.59053700
   115  N          0.03222000       0.22096890       0.90946300
   116  N          0.46778000       0.77903110       0.40946300
   117  N          0.46778000       0.72096890       0.90946300
   118  N          0.03222000       0.27903110       0.40946300
   119  N          0.96778000       0.77903110       0.09053700
   120  N          0.53222000       0.22096890       0.59053700
   121  N          0.39072000       0.28339110       0.17548700
   122  N          0.10928000       0.71660890       0.67548700
   123  N          0.89072000       0.21660890       0.82451300
   124  N          0.60928000       0.78339110       0.32451300
   125  N          0.60928000       0.71660890       0.82451300
   126  N          0.89072000       0.28339110       0.32451300
   127  N          0.10928000       0.78339110       0.17548700
   128  N          0.39072000       0.21660890       0.67548700
   129  N          0.48582000       0.40589110       0.13366700
   130  N          0.01418000       0.59410890       0.63366700
   131  N         -0.01418000       0.09410890       0.86633300
   132  N          0.51418000       0.90589110       0.36633300
   133  N          0.51418000       0.59410890       0.86633300
   134  N         -0.01418000       0.40589110       0.36633300
   135  N          0.01418000       0.90589110       0.13366700
   136  N          0.48582000       0.09410890       0.63366700
   137  N          0.67453000       0.43536130       0.01266800
   138  N          0.82547000       0.56463870       0.51266800
   139  N          0.17453000       0.06463870       0.98733200
   140  N          0.32547000       0.93536130       0.48733200
   141  N          0.32547000       0.56463870       0.98733200
   142  N          0.17453000       0.43536130       0.48733200
   143  N          0.82547000       0.93536130       0.01266800
   144  N          0.67453000       0.06463870       0.51266800
   145  N          0.42763000       0.08938140       0.13411100
   146  N          0.07237000       0.91061860       0.63411100
   147  N          0.92763000       0.41061860       0.86588900
   148  N          0.57237000       0.58938140       0.36588900
   149  N          0.57237000       0.91061860       0.86588900
   150  N          0.92763000       0.08938140       0.36588900
   151  N          0.07237000       0.58938140       0.13411100
   152  N          0.42763000       0.41061860       0.63411100
   153  N          0.28373000       0.44422140       0.25266800
   154  N          0.21627000       0.55577860       0.75266800
   155  N          0.78373000       0.05577860       0.74733200
   156  N          0.71627000       0.94422140       0.24733200
   157  N          0.71627000       0.55577860       0.74733200
   158  N          0.78373000       0.44422140       0.24733200
   159  N          0.21627000       0.94422140       0.25266800
   160  N          0.28373000       0.05577860       0.75266800
   161  C          0.54173000       0.35967130       0.09364800
   162  C          0.95827000       0.64032870       0.59364800
   163  C          0.04173000       0.14032870       0.90635200
   164  C          0.45827000       0.85967130       0.40635200
   165  C          0.45827000       0.64032870       0.90635200
   166  C          0.04173000       0.35967130       0.40635200
   167  C          0.95827000       0.85967130       0.09364800
   168  C          0.54173000       0.14032870       0.59364800
   169  C          0.45583000       0.24559130       0.13308800
   170  C          0.04417000       0.75440870       0.63308800
   171  C          0.95583000       0.25440870       0.86691200
   172  C          0.54417000       0.74559130       0.36691200
   173  C          0.54417000       0.75440870       0.86691200
   174  C          0.95583000       0.24559130       0.36691200
   175  C          0.04417000       0.74559130       0.13308800
   176  C          0.45583000       0.25440870       0.63308800
   177  C          0.40843000       0.36372130       0.17271800
   178  C          0.09157000       0.63627870       0.67271800
   179  C          0.90843000       0.13627870       0.82728200
   180  C          0.59157000       0.86372130       0.32728200
   181  C          0.59157000       0.63627870       0.82728200
   182  C          0.90843000       0.36372130       0.32728200
   183  C          0.09157000       0.86372130       0.17271800
   184  C          0.40843000       0.13627870       0.67271800
   185  C          0.61863000       0.40186140       0.04841900
   186  C          0.88137000       0.59813860       0.54841900
   187  C          0.11863000       0.09813860       0.95158100
   188  C          0.38137000       0.90186140       0.45158100
   189  C          0.38137000       0.59813860       0.95158100
   190  C          0.11863000       0.40186140       0.45158100
   191  C          0.88137000       0.90186140       0.04841900
   192  C          0.61863000       0.09813860       0.54841900
   193  C          0.44073000       0.15789150       0.13331900
   194  C          0.05927000       0.84210850       0.63331900
   195  C          0.94073000       0.34210850       0.86668100
   196  C          0.55927000       0.65789150       0.36668100
   197  C          0.55927000       0.84210850       0.86668100
   198  C          0.94073000       0.15789150       0.36668100
   199  C          0.05927000       0.65789150       0.13331900
   200  C          0.44073000       0.34210850       0.63331900
   201  C          0.33893000       0.40960140       0.21729900
   202  C          0.16107000       0.59039860       0.71729900
   203  C          0.83893000       0.09039860       0.78270100
   204  C          0.66107000       0.90960140       0.28270100
   205  C          0.66107000       0.59039860       0.78270100
   206  C          0.83893000       0.40960140       0.28270100
   207  C          0.16107000       0.90960140       0.21729900
   208  C          0.33893000       0.09039860       0.71729900
