data_FAJHAA
_symmetry_space_group_name_H-M    'P1'
_symmetry_Int_Tables_number       1
loop_
_symmetry_equiv_pos_site_id
_symmetry_equiv_pos_as_xyz
1 x,y,z
_cell_length_a                   14.67652
_cell_length_b                   8.604901
_cell_length_c                   13.95722
_cell_angle_alpha                90.0
_cell_angle_beta                 120.20401
_cell_angle_gamma                90.0
loop_
_atom_site_label
_atom_site_type_symbol
_atom_site_fract_x
_atom_site_fract_y
_atom_site_fract_z
     1  I          0.21010613       0.50000000       0.73923614
     2  I          0.71010613       0.00000000       0.73923614
     3  I          0.78989387       0.50000000       0.26076386
     4  I          0.28989387       0.00000000       0.26076386
     5  O          0.28407140       0.33982000       0.82178140
     6  O          0.78407140       0.83982000       0.82178140
     7  O          0.71592860       0.33982000       0.17821860
     8  O          0.21592860       0.83982000       0.17821860
     9  O          0.71592860       0.66018000       0.17821860
    10  O          0.21592860       0.16018000       0.17821860
    11  O          0.28407140       0.66018000       0.82178140
    12  O          0.78407140       0.16018000       0.82178140
    13  F          0.11952000       0.50000000       0.81102000
    14  F          0.61952000       0.00000000       0.81102000
    15  F          0.88048000       0.50000000       0.18898000
    16  F          0.38048000       0.00000000       0.18898000
    17  F          0.29302000       0.50000000       0.65902000
    18  F          0.79302000      -0.00000000       0.65902000
    19  F          0.70698000       0.50000000       0.34098000
    20  F          0.20698000       0.00000000       0.34098000
    21  N          0.16832000       0.50000000       0.35182000
    22  N          0.66832000       0.00000000       0.35182000
    23  N          0.83168000       0.50000000       0.64818000
    24  N          0.33168000       0.00000000       0.64818000
    25  C          0.12603000       0.50000000       0.22953000
    26  C          0.62603000       0.00000000       0.22953000
    27  C          0.87397000       0.50000000       0.77047000
    28  C          0.37397000       0.00000000       0.77047000
    29  C          0.13032000       0.35823000       0.38312000
    30  C          0.63032000       0.85823000       0.38312000
    31  C          0.86968000       0.35823000       0.61688000
    32  C          0.36968000       0.85823000       0.61688000
    33  C          0.86968000       0.64177000       0.61688000
    34  C          0.36968000       0.14177000       0.61688000
    35  C          0.13032000       0.64177000       0.38312000
    36  C          0.63032000       0.14177000       0.38312000
    37  C          0.28653000       0.50000000       0.41244000
    38  C          0.78653000      -0.00000000       0.41244000
    39  C          0.71347000       0.50000000       0.58756000
    40  C          0.21347000       0.00000000       0.58756000
    41  H          0.05813400       0.50000000       0.19803200
    42  H          0.55813400       0.00000000       0.19803200
    43  H          0.94186600       0.50000000       0.80196800
    44  H          0.44186600       0.00000000       0.80196800
    45  H          0.14902000       0.41592800       0.21202000
    46  H          0.64902000       0.91592800       0.21202000
    47  H          0.85098000       0.41592800       0.78798000
    48  H          0.35098000       0.91592800       0.78798000
    49  H          0.85098000       0.58407200       0.78798000
    50  H          0.35098000       0.08407200       0.78798000
    51  H          0.14902000       0.58407200       0.21202000
    52  H          0.64902000       0.08407200       0.21202000
    53  H          0.15932000       0.36162900       0.45952300
    54  H          0.65932000       0.86162900       0.45952300
    55  H          0.84068000       0.36162900       0.54047700
    56  H          0.34068000       0.86162900       0.54047700
    57  H          0.84068000       0.63837100       0.54047700
    58  H          0.34068000       0.13837100       0.54047700
    59  H          0.15932000       0.63837100       0.45952300
    60  H          0.65932000       0.13837100       0.45952300
    61  H          0.05562200       0.36493000       0.34332100
    62  H          0.55562200       0.86493000       0.34332100
    63  H          0.94437800       0.36493000       0.65667900
    64  H          0.44437800       0.86493000       0.65667900
    65  H          0.94437800       0.63507000       0.65667900
    66  H          0.44437800       0.13507000       0.65667900
    67  H          0.05562200       0.63507000       0.34332100
    68  H          0.55562200       0.13507000       0.34332100
    69  H          0.30592500       0.41283500       0.38932700
    70  H          0.80592500       0.91283500       0.38932700
    71  H          0.69407500       0.41283500       0.61067300
    72  H          0.19407500       0.91283500       0.61067300
    73  H          0.69407500       0.58716500       0.61067300
    74  H          0.19407500       0.08716500       0.61067300
    75  H          0.30592500       0.58716500       0.38932700
    76  H          0.80592500       0.08716500       0.38932700
    77  H          0.30843100       0.50000000       0.49283600
    78  H          0.80843100      -0.00000000       0.49283600
    79  H          0.69156900       0.50000000       0.50716400
    80  H          0.19156900       0.00000000       0.50716400
    81  H          0.15721900       0.26193300       0.36042100
    82  H          0.65721900       0.76193300       0.36042100
    83  H          0.84278100       0.26193300       0.63957900
    84  H          0.34278100       0.76193300       0.63957900
    85  H          0.84278100       0.73806700       0.63957900
    86  H          0.34278100       0.23806700       0.63957900
    87  H          0.15721900       0.73806700       0.36042100
    88  H          0.65721900       0.23806700       0.36042100
    89  F          0.07094120       0.71942000       0.58740130
    90  F          0.57094120       0.21942000       0.58740130
    91  F          0.92905880       0.71942000       0.41259870
    92  F          0.42905880       0.21942000       0.41259870
    93  F          0.92905880       0.28058000       0.41259870
    94  F          0.42905880       0.78058000       0.41259870
    95  F          0.07094120       0.28058000       0.58740130
    96  F          0.57094120       0.78058000       0.58740130
    97  H         -0.00000000       0.71756600       0.50000000
    98  H          0.50000000       0.21756600       0.50000000
    99  H         -0.00000000       0.28243400       0.50000000
   100  H          0.50000000       0.78243400       0.50000000
   101  C          0.71683000       0.50000000       0.91483000
   102  C          0.21683000       0.00000000       0.91483000
   103  C          0.28317000       0.50000000       0.08517000
   104  C          0.78317000       0.00000000       0.08517000
   105  C          0.56512000       0.64153000       0.89752000
   106  C          0.06512000       0.14153000       0.89752000
   107  C          0.43488000       0.64153000       0.10248000
   108  C          0.93488000       0.14153000       0.10248000
   109  C          0.43488000       0.35847000       0.10248000
   110  C          0.93488000       0.85847000       0.10248000
   111  C          0.56512000       0.35847000       0.89752000
   112  C          0.06512000       0.85847000       0.89752000
   113  C          0.55053000       0.50000000       0.73813000
   114  C          0.05053000       0.00000000       0.73813000
   115  C          0.44947000       0.50000000       0.26187000
   116  C          0.94947000       0.00000000       0.26187000
   117  N          0.59992000       0.50000000       0.86192000
   118  N          0.09992000       0.00000000       0.86192000
   119  N          0.40008000       0.50000000       0.13808000
   120  N          0.90008000       0.00000000       0.13808000
   121  H          0.58542000       0.72733200       0.87022200
   122  H          0.08542000       0.22733200       0.87022200
   123  H          0.41458000       0.72733200       0.12977800
   124  H          0.91458000       0.22733200       0.12977800
   125  H          0.41458000       0.27266800       0.12977800
   126  H          0.91458000       0.77266800       0.12977800
   127  H          0.58542000       0.27266800       0.87022200
   128  H          0.08542000       0.77266800       0.87022200
   129  H          0.73362400       0.58413500       0.88782600
   130  H          0.23362400       0.08413500       0.88782600
   131  H          0.26637600       0.58413500       0.11217400
   132  H          0.76637600       0.08413500       0.11217400
   133  H          0.26637600       0.41586500       0.11217400
   134  H          0.76637600       0.91586500       0.11217400
   135  H          0.73362400       0.41586500       0.88782600
   136  H          0.23362400       0.91586500       0.88782600
   137  H          0.57112200       0.58973100       0.71772300
   138  H          0.07112200       0.08973100       0.71772300
   139  H          0.42887800       0.58973100       0.28227700
   140  H          0.92887800       0.08973100       0.28227700
   141  H          0.42887800       0.41026900       0.28227700
   142  H          0.92887800       0.91026900       0.28227700
   143  H          0.57112200       0.41026900       0.71772300
   144  H          0.07112200       0.91026900       0.71772300
   145  H          0.74883300       0.50000000      -0.00446300
   146  H          0.24883300       0.00000000      -0.00446300
   147  H          0.25116700       0.50000000       0.00446300
   148  H          0.75116700       0.00000000       0.00446300
   149  H          0.47543100       0.50000000       0.70453100
   150  H          0.97543100       0.00000000       0.70453100
   151  H          0.52456900       0.50000000       0.29546900
   152  H          0.02456900       0.00000000       0.29546900
   153  H          0.60032000       0.64192800       0.97642200
   154  H          0.10032000       0.14192800       0.97642200
   155  H          0.39968000       0.64192800       0.02357800
   156  H          0.89968000       0.14192800       0.02357800
   157  H          0.39968000       0.35807200       0.02357800
   158  H          0.89968000       0.85807200       0.02357800
   159  H          0.60032000       0.35807200       0.97642200
   160  H          0.10032000       0.85807200       0.97642200
   161  H          0.48962600       0.64313400       0.86192600
   162  H         -0.01037400       0.14313400       0.86192600
   163  H          0.51037400       0.64313400       0.13807400
   164  H          0.01037400       0.14313400       0.13807400
   165  H          0.51037400       0.35686600       0.13807400
   166  H          0.01037400       0.85686600       0.13807400
   167  H          0.48962600       0.35686600       0.86192600
   168  H         -0.01037400       0.85686600       0.86192600
