data_FAJKIN
_symmetry_space_group_name_H-M    'P1'
_symmetry_Int_Tables_number       1
loop_
_symmetry_equiv_pos_site_id
_symmetry_equiv_pos_as_xyz
1 x,y,z
_cell_length_a                   9.397614
_cell_length_b                   10.585316
_cell_length_c                   13.4272
_cell_angle_alpha                107.1843
_cell_angle_beta                 100.8503
_cell_angle_gamma                103.2473
loop_
_atom_site_label
_atom_site_type_symbol
_atom_site_fract_x
_atom_site_fract_y
_atom_site_fract_z
     1  B          0.79054000       0.75044000       0.39253000
     2  B          0.20946000       0.24956000       0.60747000
     3  B          0.74894000       0.94313000       0.52713000
     4  B          0.25106000       0.05687000       0.47287000
     5  B          0.79174000       0.96833000       0.36173000
     6  B          0.20826000       0.03167000       0.63827000
     7  O          0.77572000       0.81952000       0.50025150
     8  O          0.22428000       0.18048000       0.49974850
     9  O          0.75762000       0.02082000       0.45971150
    10  O          0.24238000       0.97918000       0.54028850
    11  O          0.82062000       0.84652000       0.33307150
    12  O          0.17938000       0.15348000       0.66692850
    13  N          0.94343000       0.70383000       0.40931190
    14  N          0.05657000       0.29617000       0.59068810
    15  H          0.96730000       0.69630000       0.34931200
    16  H          0.03270000       0.30370000       0.65068800
    17  H          0.01230000       0.77501900       0.45811700
    18  H         -0.01230000       0.22498100       0.54188300
    19  C          0.64463000       0.61643000       0.32072000
    20  C          0.35537000       0.38357000       0.67928000
    21  C          0.54273000       0.55293000       0.36723000
    22  C          0.45727000       0.44707000       0.63277000
    23  H          0.56030000       0.58760000       0.44370000
    24  H          0.43970000       0.41240000       0.55630000
    25  C          0.41544000       0.43973000       0.30463000
    26  C          0.58456000       0.56027000       0.69537000
    27  H          0.34810000       0.39830000       0.33880000
    28  H          0.65190000       0.60170000       0.66120000
    29  C          0.38683000       0.38743000       0.19313000
    30  C          0.61317000       0.61257000       0.80687000
    31  H          0.30040000       0.30990000       0.15040000
    32  H          0.69960000       0.69010000       0.84960000
    33  C          0.48483000       0.44883000       0.14463000
    34  C          0.51517000       0.55117000       0.85537000
    35  H          0.46600000       0.41370000       0.06800000
    36  H          0.53400000       0.58630000       0.93200000
    37  C          0.61133000       0.56223000       0.20752000
    38  C          0.38867000       0.43777000       0.79248000
    39  H          0.67700000       0.60400000       0.17260000
    40  H          0.32300000       0.39600000       0.82740000
    41  C          0.70373000       0.00333000       0.63372000
    42  C          0.29627000      -0.00333000       0.36628000
    43  C          0.72613000       0.95093000       0.71802000
    44  C          0.27387000       0.04907000       0.28198000
    45  H          0.76910000       0.87680000       0.71000000
    46  H          0.23090000       0.12320000       0.29000000
    47  C          0.68693000       0.00493000       0.81273000
    48  C          0.31307000      -0.00493000       0.18727000
    49  H          0.70340000       0.96790000       0.86880000
    50  H          0.29660000       0.03210000       0.13120000
    51  C          0.62374000       0.11303000       0.82553000
    52  C          0.37626000       0.88697000       0.17447000
    53  H          0.59740000       0.15040000       0.89050000
    54  H          0.40260000       0.84960000       0.10950000
    55  C          0.59903000       0.16653000       0.74363000
    56  C          0.40097000       0.83347000       0.25637000
    57  H          0.55460000       0.23970000       0.75190000
    58  H          0.44540000       0.76030000       0.24810000
    59  C          0.63953000       0.11253000       0.64912000
    60  C          0.36047000       0.88747000       0.35088000
    61  H          0.62330000       0.15050000       0.59360000
    62  H          0.37670000       0.84950000       0.40640000
    63  C          0.79183000       0.05693000       0.28672000
    64  C          0.20817000       0.94307000       0.71328000
    65  C          0.70633000       0.15063000       0.29542000
    66  C          0.29367000       0.84937000       0.70458000
    67  H          0.65150000       0.16160000       0.34840000
    68  H          0.34850000       0.83840000       0.65160000
    69  C          0.70063000       0.22723000       0.22772000
    70  C          0.29937000       0.77277000       0.77228000
    71  H          0.64050000       0.28860000       0.23350000
    72  H          0.35950000       0.71140000       0.76650000
    73  C          0.78214000       0.21423000       0.15223000
    74  C          0.21786000       0.78577000       0.84777000
    75  H          0.77920000       0.26770000       0.10660000
    76  H          0.22080000       0.73230000       0.89340000
    77  C          0.86854000       0.12354000       0.14243000
    78  C          0.13146000       0.87646000       0.85757000
    79  H          0.92530000       0.11510000       0.09050000
    80  H          0.07470000       0.88490000       0.90950000
    81  C          0.87144000       0.04503000       0.20863000
    82  C          0.12856000       0.95497000       0.79137000
    83  H          0.92910000      -0.01850000       0.20060000
    84  H          0.07090000       0.01850000       0.79940000
    85  C          0.94213000       0.57593000       0.43492000
    86  C          0.05787000       0.42407000       0.56508000
    87  H          0.85910000       0.49670000       0.37720000
    88  H          0.14090000       0.50330000       0.62280000
    89  C          0.90853000       0.58773000       0.54352000
    90  C          0.09147000       0.41227000       0.45648000
    91  H          0.80820000       0.60320000       0.54160000
    92  H          0.19180000       0.39680000       0.45840000
    93  H         -0.01340000       0.66810000       0.60190000
    94  H          0.01340000       0.33190000       0.39810000
    95  C          0.09173000       0.54473000       0.43262000
    96  C          0.90827000       0.45527000       0.56738000
    97  H          0.17620000       0.62350000       0.48730000
    98  H          0.82380000       0.37650000       0.51270000
    99  H          0.10860000       0.53400000       0.36040000
   100  H          0.89140000       0.46600000       0.63960000
   101  N         -0.00173000       0.69013000       0.20202000
   102  N          0.00173000       0.30987000       0.79798000
   103  H          0.94070000       0.74230000       0.19830000
   104  H          0.05930000       0.25770000       0.80170000
   105  H          0.08961400       0.74230000       0.21530000
   106  H          0.91038600       0.25770000       0.78470000
   107  C          0.96057000       0.57753000       0.09702000
   108  C          0.03943000       0.42247000       0.90298000
   109  H          0.85490000       0.51660000       0.08270000
   110  H          0.14510000       0.48340000       0.91730000
   111  C          0.06884000       0.49073000       0.10452000
   112  C          0.93116000       0.50927000       0.89548000
   113  H          0.05880000       0.45270000       0.16280000
   114  H          0.94120000       0.54730000       0.83720000
   115  H          0.17490000       0.55040000       0.12330000
   116  H          0.82510000       0.44960000       0.87670000
   117  C          0.96607000       0.62883000       0.00312000
   118  C          0.03393000       0.37117000      -0.00312000
   119  H          0.06840000       0.69360000       0.01790000
   120  H          0.93160000       0.30640000       0.98210000
   121  H          0.89130000       0.68040000      -0.00300000
   122  H          0.10870000       0.31960000       0.00300000
