data_FAJRAJ
_symmetry_space_group_name_H-M    'P1'
_symmetry_Int_Tables_number       1
loop_
_symmetry_equiv_pos_site_id
_symmetry_equiv_pos_as_xyz
1 x,y,z
_cell_length_a                   8.4283
_cell_length_b                   21.8397
_cell_length_c                   9.5483
_cell_angle_alpha                90.0
_cell_angle_beta                 115.515
_cell_angle_gamma                90.0
loop_
_atom_site_label
_atom_site_type_symbol
_atom_site_fract_x
_atom_site_fract_y
_atom_site_fract_z
     1  I          0.77357200       0.15235300       0.05023600
     2  I          0.22642800       0.65235300       0.44976400
     3  I          0.22642800       0.84764700       0.94976400
     4  I          0.77357200       0.34764700       0.55023600
     5  I          0.58758900       0.23225400       0.15355900
     6  I          0.41241100       0.73225400       0.34644100
     7  I          0.41241100       0.76774600       0.84644100
     8  I          0.58758900       0.26774600       0.65355900
     9  S         -0.02143000       0.08501000       0.93913000
    10  S          0.02143000       0.58501000       0.56087000
    11  S          0.02143000       0.91499000       0.06087000
    12  S         -0.02143000       0.41499000       0.43913000
    13  S          0.08853000       0.18421000       0.51303000
    14  S          0.91147000       0.68421000      -0.01303000
    15  S          0.91147000       0.81579000       0.48697000
    16  S          0.08853000       0.31579000       0.01303000
    17  C          0.14951000       0.13644000       0.79199000
    18  C          0.85049000       0.63644000       0.70801000
    19  C          0.85049000       0.86356000       0.20801000
    20  C          0.14951000       0.36356000       0.29199000
    21  C          0.12161400       0.14674000       0.93691100
    22  C          0.87838600       0.64674000       0.56308900
    23  C          0.87838600       0.85326000       0.06308900
    24  C          0.12161400       0.35326000       0.43691100
    25  C          0.85138600       0.08996000       0.72851200
    26  C          0.14861400       0.58996000       0.77148800
    27  C          0.14861400       0.91004000       0.27148800
    28  C          0.85138600       0.41004000       0.22851200
    29  C         -0.01151000       0.10074000       0.66709000
    30  C          0.01151000       0.60074000       0.83291000
    31  C          0.01151000       0.89926000       0.33291000
    32  C         -0.01151000       0.39926000       0.16709000
    33  C          0.91278600       0.13575000       0.51171100
    34  C          0.08721400       0.63575000      -0.01171100
    35  C          0.08721400       0.86425000       0.48828900
    36  C          0.91278600       0.36425000       0.01171100
    37  C          0.18421600       0.19505000       0.72141100
    38  C          0.81578400       0.69505000       0.77858900
    39  C          0.81578400       0.80495000       0.27858900
    40  C          0.18421600       0.30495000       0.22141100
    41  C          0.26821500       0.08206000       0.79911400
    42  C          0.73178500       0.58206000       0.70088600
    43  C          0.73178500       0.91794000       0.20088600
    44  C          0.26821500       0.41794000       0.29911400
    45  C          0.11361500       0.04545000       0.68171200
    46  C          0.88638500       0.54545000       0.81828800
    47  C          0.88638500       0.95455000       0.31828800
    48  C          0.11361500       0.45455000       0.18171200
    49  H          0.22112000       0.14740000       0.02910000
    50  H          0.77888000       0.64740000       0.47090000
    51  H          0.77888000       0.85260000       0.97090000
    52  H          0.22112000       0.35260000       0.52910000
    53  H          0.06114000       0.18350000       0.91512000
    54  H          0.93886000       0.68350000       0.58488000
    55  H          0.93886000       0.81650000       0.08488000
    56  H          0.06114000       0.31650000       0.41512000
    57  H          0.77589000       0.12440000       0.69910000
    58  H          0.22411000       0.62440000       0.80090000
    59  H          0.22411000       0.87560000       0.30090000
    60  H          0.77589000       0.37560000       0.19910000
    61  H          0.75390000       0.04940000       0.68590000
    62  H          0.24610000       0.54940000       0.81410000
    63  H          0.24610000       0.95060000       0.31410000
    64  H          0.75390000       0.45060000       0.18590000
    65  H          0.88688000       0.10150000       0.40112000
    66  H          0.11312000       0.60150000       0.09888000
    67  H          0.11312000       0.89850000       0.59888000
    68  H          0.88688000       0.39850000       0.90112000
    69  H          0.82584000       0.17760000       0.48114000
    70  H          0.17416000       0.67760000       0.01886000
    71  H          0.17416000       0.82240000       0.51886000
    72  H          0.82584000       0.32240000       0.98114000
    73  H          0.09921000       0.22480000       0.78118000
    74  H          0.90079000       0.72480000       0.71882000
    75  H          0.90079000       0.77520000       0.21882000
    76  H          0.09921000       0.27520000       0.28118000
    77  H          0.31210000       0.20440000       0.75190000
    78  H          0.68790000       0.70440000       0.74810000
    79  H          0.68790000       0.79560000       0.24810000
    80  H          0.31210000       0.29560000       0.25190000
    81  H          0.27420000       0.05980000       0.86217000
    82  H          0.72580000       0.55980000       0.63783000
    83  H          0.72580000       0.94020000       0.13783000
    84  H          0.27420000       0.44020000       0.36217000
    85  H          0.36014000       0.08850000       0.78312000
    86  H          0.63986000       0.58850000       0.71688000
    87  H          0.63986000       0.91150000       0.21688000
    88  H          0.36014000       0.41150000       0.28312000
    89  H          0.10110000       0.03340000       0.57590000
    90  H          0.89890000       0.53340000       0.92410000
    91  H          0.89890000       0.96660000       0.42410000
    92  H          0.10110000       0.46660000       0.07590000
    93  H          0.08413000       0.01450000       0.72411000
    94  H          0.91587000       0.51450000       0.77589000
    95  H          0.91587000       0.98550000       0.27589000
    96  H          0.08413000       0.48550000       0.22411000
    97  I          0.29909800       0.11107300       0.40279600
    98  I          0.70090200       0.61107300       0.09720400
    99  I          0.70090200       0.88892700       0.59720400
   100  I          0.29909800       0.38892700       0.90279600
   101  I          0.48597800       0.04195300       0.28195800
   102  I          0.51402200       0.54195300       0.21804200
   103  I          0.51402200       0.95804700       0.71804200
   104  I          0.48597800       0.45804700       0.78195800
