data_FALQUF
_symmetry_space_group_name_H-M    'P1'
_symmetry_Int_Tables_number       1
loop_
_symmetry_equiv_pos_site_id
_symmetry_equiv_pos_as_xyz
1 x,y,z
_cell_length_a                   8.5232
_cell_length_b                   12.3625
_cell_length_c                   11.6993
_cell_angle_alpha                90.0
_cell_angle_beta                 100.932
_cell_angle_gamma                90.0
loop_
_atom_site_label
_atom_site_type_symbol
_atom_site_fract_x
_atom_site_fract_y
_atom_site_fract_z
     1  O          0.66417000       0.82160000       0.35394000
     2  O          0.33583000       0.32160000       0.64606000
     3  O          0.59304000       0.92985000       0.20043000
     4  O          0.40696000       0.42985000       0.79957000
     5  O          0.90045000       0.89775000       0.07364000
     6  O          0.09955000       0.39775000       0.92636000
     7  H         -0.01880000       0.93510000       0.08570000
     8  H          0.01880000       0.43510000       0.91430000
     9  O          0.78135000       0.05375000       0.01514000
    10  O          0.21865000       0.55375000       0.98486000
    11  O          0.48874000       0.95395000       0.96703000
    12  O          0.51126000       0.45395000       0.03297000
    13  O          0.52007000       0.92627000       0.78444000
    14  O          0.47993000       0.42627000       0.21556000
    15  O          0.44755000       0.70115000       0.02834000
    16  O          0.55245000       0.20115000       0.97166000
    17  H          0.36350000       0.66690000       0.01940000
    18  H          0.63650000       0.16690000       0.98060000
    19  O          0.33725000       0.79305000       0.15794000
    20  O          0.66275000       0.29305000       0.84206000
    21  C          0.62487000       0.00847000       0.38585000
    22  C          0.37513000       0.50847000       0.61415000
    23  C          0.60901000       0.18661000       0.52328000
    24  C          0.39099000       0.68661000       0.47672000
    25  H          0.60220000       0.24670000       0.56990000
    26  H          0.39780000       0.74670000       0.43010000
    27  C          0.63338000      -0.00222000       0.50456000
    28  C          0.36662000       0.49778000       0.49544000
    29  H          0.64450000       0.92960000       0.53890000
    30  H          0.35550000       0.42960000       0.46110000
    31  C          0.62511000       0.08731000       0.57087000
    32  C          0.37489000       0.58731000       0.42913000
    33  H          0.63070000       0.07970000       0.65060000
    34  H          0.36930000       0.57970000       0.34940000
    35  C          0.60251000       0.19988000       0.40638000
    36  C          0.39749000       0.69988000       0.59362000
    37  H          0.59390000       0.26880000       0.37400000
    38  H          0.40610000       0.76880000       0.62600000
    39  C          0.60898000       0.11007000       0.33586000
    40  C          0.39102000       0.61007000       0.66414000
    41  H          0.60250000       0.11820000       0.25610000
    42  H          0.39750000       0.61820000       0.74390000
    43  C          0.63067000       0.90986000       0.31585000
    44  C          0.36933000       0.40986000       0.68415000
    45  C          0.59866000       0.84026000       0.12435000
    46  C          0.40134000       0.34026000       0.87565000
    47  H          0.68840000       0.79300000       0.15680000
    48  H          0.31160000       0.29300000       0.84320000
    49  C          0.62676000       0.88946000       0.00945000
    50  C          0.37324000       0.38946000      -0.00945000
    51  H          0.63690000       0.83190000       0.95350000
    52  H          0.36310000       0.33190000       0.04650000
    53  C          0.77637000       0.95827000       0.03195000
    54  C          0.22363000       0.45827000       0.96805000
    55  C          0.44627000       0.77686000       0.10685000
    56  C          0.55373000       0.27686000       0.89315000
    57  C          0.44348000       0.96567000       0.85145000
    58  C          0.55652000       0.46567000       0.14855000
    59  C          0.29497000       0.02806000       0.81855000
    60  C          0.70503000       0.52806000       0.18145000
    61  C          0.21177000       0.06437000       0.90245000
    62  C          0.78823000       0.56437000       0.09755000
    63  H          0.24960000       0.04870000       0.98050000
    64  H          0.75040000       0.54870000       0.01950000
    65  C          0.07417000       0.12307000       0.87027000
    66  C          0.92583000       0.62307000       0.12973000
    67  H          0.01970000       0.14750000       0.92700000
    68  H          0.98030000       0.64750000       0.07300000
    69  C          0.01638000       0.14588000       0.75718000
    70  C         -0.01638000       0.64588000       0.24282000
    71  H          0.92230000       0.18520000       0.73600000
    72  H          0.07770000       0.68520000       0.26400000
    73  C          0.09741000       0.11019000       0.67377000
    74  C          0.90259000       0.61019000       0.32623000
    75  H          0.05780000       0.12540000       0.59580000
    76  H          0.94220000       0.62540000       0.40420000
    77  C          0.23789000       0.05158000       0.70425000
    78  C          0.76211000       0.55158000       0.29575000
    79  H          0.29270000       0.02850000       0.64710000
    80  H          0.70730000       0.52850000       0.35290000
    81  C          0.12920000       0.21991300       0.23701400
    82  C          0.87080000       0.71991300       0.76298600
    83  H          0.13950000       0.20420000       0.15760000
    84  H          0.86050000       0.70420000       0.84240000
    85  H          0.23450000       0.23580000       0.28150000
    86  H          0.76550000       0.73580000       0.71850000
    87  C          0.02230000       0.31751300       0.23791800
    88  C          0.97770000       0.81751300       0.76208200
    89  H          0.06690000       0.37810000       0.20400000
    90  H          0.93310000       0.87810000       0.79600000
    91  H          0.01410000       0.33440000       0.31670000
    92  H         -0.01410000       0.83440000       0.68330000
    93  H          0.91780000       0.30200000       0.19370000
    94  H          0.08220000       0.80200000       0.80630000
    95  O          0.16206000       0.98766000       0.17754000
    96  O          0.83794000       0.48766000       0.82246000
    97  H          0.22210000       0.93570000       0.18127000
    98  H          0.77790000       0.43570000       0.81873000
    99  C          0.16101400       0.02809000       0.29629000
   100  C          0.83898600       0.52809000       0.70371000
   101  H          0.27050000       0.04890000       0.33120000
   102  H          0.72950000       0.54890000       0.66880000
   103  C          0.06271500       0.12401100       0.28741100
   104  C          0.93728500       0.62401100       0.71258900
   105  H          0.04550000       0.14260000       0.36470000
   106  H          0.95450000       0.64260000       0.63530000
   107  H          0.95920000       0.10730000       0.24010000
   108  H          0.04080000       0.60730000       0.75990000
   109  C          0.10971500       0.94121000       0.36978000
   110  C          0.89028500       0.44121000       0.63022000
   111  H          0.18020000       0.88030000       0.37230000
   112  H          0.81980000       0.38030000       0.62770000
   113  H          0.00260000       0.91930000       0.33690000
   114  H         -0.00260000       0.41930000       0.66310000
   115  H          0.11340000       0.96810000       0.44710000
   116  H          0.88660000       0.46810000       0.55290000
