data_FALRIU
_symmetry_space_group_name_H-M    'P1'
_symmetry_Int_Tables_number       1
loop_
_symmetry_equiv_pos_site_id
_symmetry_equiv_pos_as_xyz
1 x,y,z
_cell_length_a                   8.638412
_cell_length_b                   12.522514
_cell_length_c                   11.694715
_cell_angle_alpha                90.0
_cell_angle_beta                 99.84411
_cell_angle_gamma                90.0
loop_
_atom_site_label
_atom_site_type_symbol
_atom_site_fract_x
_atom_site_fract_y
_atom_site_fract_z
     1  O          0.11556000       0.69194000       0.93035000
     2  O          0.88444000       0.19194000       0.06965000
     3  H          0.03570000       0.72860000       0.92110000
     4  H          0.96430000       0.22860000       0.07890000
     5  C          0.23558000       0.75026000       0.97474000
     6  C          0.76442000       0.25026000       0.02526000
     7  C          0.38487000       0.68635000      -0.00666000
     8  C          0.61513000       0.18635000       0.00666000
     9  H          0.37690000       0.62880000       0.04900000
    10  H          0.62310000       0.12880000       0.95100000
    11  C          0.41298000       0.63845000       0.87914000
    12  C          0.58702000       0.13845000       0.12086000
    13  H          0.32390000       0.59260000       0.84740000
    14  H          0.67610000       0.09260000       0.15260000
    15  C          0.56189000       0.57465000       0.89303000
    16  C          0.43811000       0.07465000       0.10697000
    17  O          0.55286000       0.49534000       0.96515000
    18  O          0.44714000      -0.00466000       0.03485000
    19  H          0.63420000       0.46030000       0.97310000
    20  H          0.36580000       0.96030000       0.02690000
    21  O          0.67227000       0.59234000       0.84465000
    22  O          0.32773000       0.09234000       0.15535000
    23  O          0.22856000       0.84554000      -0.00635000
    24  O          0.77144000       0.34554000       0.00635000
    25  O          0.51965000       0.75023000       0.03474000
    26  O          0.48035000       0.25023000       0.96526000
    27  C          0.55981000       0.76316000       0.15136000
    28  C          0.44019000       0.26316000       0.84864000
    29  C          0.70548000       0.82455000       0.18196000
    30  C          0.29452000       0.32455000       0.81804000
    31  C          0.79159000       0.85966000       0.09957000
    32  C          0.20841000       0.35966000       0.90043000
    33  H          0.75780000       0.84390000       0.02150000
    34  H          0.24220000       0.34390000       0.97850000
    35  C          0.92849000       0.91857000       0.13349000
    36  C          0.07151000       0.41857000       0.86651000
    37  H         -0.01450000       0.94330000       0.07830000
    38  H          0.01450000       0.44330000       0.92170000
    39  C          0.97791200       0.93948000       0.24851200
    40  C          0.02208800       0.43948000       0.75148800
    41  H          0.07040000       0.97760000       0.27100000
    42  H          0.92960000       0.47760000       0.72900000
    43  C          0.89601500       0.90621000       0.33049000
    44  C          0.10398500       0.40621000       0.66951000
    45  H          0.93270000       0.92040000       0.40840000
    46  H          0.06730000       0.42040000       0.59160000
    47  C          0.75771200       0.85108000       0.29738000
    48  C          0.24228800       0.35108000       0.70262000
    49  H          0.69840000       0.83130000       0.35310000
    50  H          0.30160000       0.33130000       0.64690000
    51  O          0.48338000       0.72456000       0.21705000
    52  O          0.51662000       0.22456000       0.78295000
    53  O          0.41946000       0.72743000       0.80316000
    54  O          0.58054000       0.22743000       0.19684000
    55  C          0.38489000       0.70827000       0.68873000
    56  C          0.61511000       0.20827000       0.31127000
    57  C          0.38998000       0.80536000       0.61743000
    58  C          0.61002000       0.30536000       0.38257000
    59  C          0.41241000       0.90537000       0.66733000
    60  C          0.58759000       0.40537000       0.33267000
    61  H          0.42510000       0.91400000       0.74740000
    62  H          0.57490000       0.41400000       0.25260000
    63  C          0.41551100      -0.00672000       0.59328900
    64  C          0.58448900       0.49328000       0.40671100
    65  H          0.43020000       0.06170000       0.62410000
    66  H          0.56980000       0.56170000       0.37590000
    67  C          0.39731200       0.97851100       0.47808900
    68  C          0.60268800       0.47851100       0.52191100
    69  H          0.40320000       0.03750000       0.43060000
    70  H          0.59680000       0.53750000       0.56940000
    71  C          0.37151500       0.88441200       0.43009000
    72  C          0.62848500       0.38441200       0.56991000
    73  H          0.35440000       0.87720000       0.34980000
    74  H          0.64560000       0.37720000       0.65020000
    75  C          0.37001100       0.79649000       0.49942000
    76  C          0.62998900       0.29649000       0.50058000
    77  H          0.35520000       0.72920000       0.46560000
    78  H          0.64480000       0.22920000       0.53440000
    79  O          0.35178000       0.62125000       0.65075000
    80  O          0.64822000       0.12125000       0.34925000
    81  O          0.86057000       0.78145000       0.82455000
    82  O          0.13943000       0.28145000       0.17545000
    83  H          0.79520000       0.73360000       0.82230000
    84  H          0.20480000       0.23360000       0.17770000
    85  C          0.86891500       0.81599000       0.70749000
    86  C          0.13108500       0.31599000       0.29251000
    87  H          0.76610000       0.84660000       0.67600000
    88  H          0.23390000       0.34660000       0.32400000
    89  C         -0.01748400       0.90259000       0.71191100
    90  C          0.01748400       0.40259000       0.28808900
    91  H         -0.00190000       0.91660000       0.63310000
    92  H          0.00190000       0.41660000       0.36690000
    93  H          0.08180000       0.87680000       0.75440000
    94  H          0.91820000       0.37680000       0.24560000
    95  C          0.94731800       0.00829000       0.76511800
    96  C          0.05268200       0.50829000       0.23488200
    97  H          0.92310000       0.98790000       0.84110000
    98  H          0.07690000       0.48790000       0.15890000
    99  C          0.10120000       0.06821500       0.79471700
   100  C          0.89880000       0.56821500       0.20528300
   101  H          0.18190000       0.02010000       0.82930000
   102  H          0.81810000       0.52010000       0.17070000
   103  H          0.08960000       0.12460000       0.84840000
   104  H          0.91040000       0.62460000       0.15160000
   105  H          0.12810000       0.09810000       0.72520000
   106  H          0.87190000       0.59810000       0.27480000
   107  C          0.89241900       0.72531100       0.63081000
   108  C          0.10758100       0.22531100       0.36919000
   109  H          0.81140000       0.67310000       0.63250000
   110  H          0.18860000       0.17310000       0.36750000
   111  H         -0.00690000       0.69330000       0.65730000
   112  H          0.00690000       0.19330000       0.34270000
   113  H          0.88780000       0.75070000       0.55280000
   114  H          0.11220000       0.25070000       0.44720000
   115  C          0.83220000       0.07120000       0.72330000
   116  C          0.16780000       0.57120000       0.27670000
   117  H          0.73670000       0.03050000       0.70490000
   118  H          0.26330000       0.53050000       0.29510000
   119  H          0.85430000       0.10400000       0.65300000
   120  H          0.14570000       0.60400000       0.34700000
   121  H          0.82010000       0.12540000       0.77840000
   122  H          0.17990000       0.62540000       0.22160000
