data_FAPKUG
_symmetry_space_group_name_H-M    'P1'
_symmetry_Int_Tables_number       1
loop_
_symmetry_equiv_pos_site_id
_symmetry_equiv_pos_as_xyz
1 x,y,z
_cell_length_a                   7.70932
_cell_length_b                   10.88813
_cell_length_c                   13.42764
_cell_angle_alpha                68.0542
_cell_angle_beta                 84.1152
_cell_angle_gamma                77.4222
loop_
_atom_site_label
_atom_site_type_symbol
_atom_site_fract_x
_atom_site_fract_y
_atom_site_fract_z
     1  I          0.14252400       0.09177300       0.25823200
     2  I          0.85747600       0.90822700       0.74176800
     3  I          0.30445400       0.15997300       0.66409200
     4  I          0.69554600       0.84002700       0.33590800
     5  I          0.33964500       0.60009700       0.66061200
     6  I          0.66035500       0.39990300       0.33938800
     7  F          0.37084000       0.84127000       0.73372000
     8  F          0.62916000       0.15873000       0.26628000
     9  F          0.20224000       0.22203000       0.42422000
    10  F          0.79776000       0.77797000       0.57578000
    11  F          0.21964000       0.78877000       0.42392000
    12  F          0.78036000       0.21123000       0.57608000
    13  C          0.21296000       0.00785000       0.41873000
    14  C          0.78704000      -0.00785000       0.58127000
    15  C          0.28476000       0.03525000       0.58133000
    16  C          0.71524000       0.96475000       0.41867000
    17  C          0.24346000       0.86805000       0.47503000
    18  C          0.75654000       0.13195000       0.52497000
    19  C          0.32066000       0.89465000       0.63113000
    20  C          0.67934000       0.10535000       0.36887000
    21  C          0.23436000       0.08725000       0.47534000
    22  C          0.76564000       0.91275000       0.52466000
    23  C          0.30006000       0.80875000       0.58074000
    24  C          0.69994000       0.19125000       0.41926000
    25  C          0.83584000       0.38016000       0.04385000
    26  C          0.16416000       0.61984000       0.95615000
    27  H          0.81938500       0.33668800       0.11900200
    28  H          0.18061500       0.66331200       0.88099800
    29  C          0.88253000       0.50806000       0.82695000
    30  C          0.11747000       0.49194000       0.17305000
    31  H          0.90064100       0.55183300       0.75192800
    32  H          0.09935900       0.44816700       0.24807200
    33  O          0.09054000       0.21624000       0.03343000
    34  O          0.90946000       0.78376000       0.96657000
    35  N         -0.00255000       0.39485000       0.88183000
    36  N          0.00255000       0.60515000       0.11817000
    37  H          0.08851100       0.36516500       0.84612700
    38  H          0.91148900       0.63483500       0.15387300
    39  C          0.74072000       0.55977000       0.87886000
    40  C          0.25928000       0.44023000       0.12114000
    41  H          0.65707300       0.63761800       0.84077600
    42  H          0.34292700       0.36238200       0.15922400
    43  C          0.98114000       0.32345000      -0.01086000
    44  C          0.01886000       0.67655000       0.01086000
    45  C          0.72283000       0.49307000      -0.00895000
    46  C          0.27717000       0.50693000       0.00895000
    47  H          0.62874200       0.52936600       0.02951800
    48  H          0.37125800       0.47063400       0.97048200
    49  C          0.73783000       0.10046000       0.00185000
    50  C          0.26217000       0.89954000      -0.00185000
    51  H          0.82925500       0.04820600       0.05151000
    52  H          0.17074500       0.95179400       0.94849000
    53  O          0.33655000       0.31634000       0.79453000
    54  O          0.66345000       0.68366000       0.20547000
    55  N          0.43575000       0.19124000       0.96343000
    56  N          0.56425000       0.80876000       0.03657000
    57  H          0.32512400       0.20020200       0.98761800
    58  H          0.67487600       0.79979800       0.01238200
    59  C          0.46583000       0.25005000       0.85614000
    60  C          0.53417000       0.74995000       0.14386000
    61  C          0.56473000       0.11976000       0.03534000
    62  C          0.43527000       0.88024000       0.96466000
    63  H          0.53452900       0.08277900       0.10948500
    64  H          0.46547100       0.91722100       0.89051500
    65  C          0.77753000       0.15976000       0.89235000
    66  C          0.22247000       0.84024000       0.10765000
    67  H          0.89783700       0.14902300       0.86739800
    68  H          0.10216300       0.85097700       0.13260200
    69  C          0.64723000       0.23176000       0.82154000
    70  C          0.35277000       0.76824000       0.17846000
    71  H          0.67720100       0.27081800       0.74748300
    72  H          0.32279900       0.72918200       0.25251700
