data_FAQWUS
_symmetry_space_group_name_H-M    'P1'
_symmetry_Int_Tables_number       1
loop_
_symmetry_equiv_pos_site_id
_symmetry_equiv_pos_as_xyz
1 x,y,z
_cell_length_a                   7.63352
_cell_length_b                   32.13799
_cell_length_c                   8.44023
_cell_angle_alpha                90.0
_cell_angle_beta                 95.17101
_cell_angle_gamma                90.0
loop_
_atom_site_label
_atom_site_type_symbol
_atom_site_fract_x
_atom_site_fract_y
_atom_site_fract_z
     1  Cl         0.76220120       0.33787200       0.58522110
     2  Cl         0.23779880       0.83787200       0.91477890
     3  Cl         0.23779880       0.66212800       0.41477890
     4  Cl         0.76220120       0.16212800       0.08522110
     5  O          0.54494000       0.44962700       0.32563000
     6  O          0.45506000       0.94962700       0.17437000
     7  O          0.45506000       0.55037300       0.67437000
     8  O          0.54494000       0.05037300       0.82563000
     9  O          0.64245000       0.38524800       0.31983000
    10  O          0.35755000       0.88524800       0.18017000
    11  O          0.35755000       0.61475200       0.68017000
    12  O          0.64245000       0.11475200       0.81983000
    13  C          0.69413000       0.42243800       0.56083000
    14  C          0.30587000       0.92243800       0.93917000
    15  C          0.30587000       0.57756200       0.43917000
    16  C          0.69413000       0.07756200       0.06083000
    17  N          0.91454000       0.43987100       0.03323000
    18  N          0.08546000       0.93987100       0.46677000
    19  N          0.08546000       0.56012900       0.96677000
    20  N          0.91454000       0.06012900       0.53323000
    21  C          0.76433000       0.38864800       0.65183000
    22  C          0.23567000       0.88864800       0.84817000
    23  C          0.23567000       0.61135200       0.34817000
    24  C          0.76433000       0.11135200       0.15183000
    25  C          0.61884000       0.42004800       0.39083000
    26  C          0.38116000       0.92004800       0.10917000
    27  C          0.38116000       0.57995200       0.60917000
    28  C          0.61884000       0.07995200       0.89083000
    29  C          0.83724000       0.43408100       0.86823000
    30  C          0.16276000       0.93408100       0.63177000
    31  C          0.16276000       0.56591900       0.13177000
    32  C          0.83724000       0.06591900       0.36823000
    33  C          0.69564000       0.46136900       0.63204000
    34  C          0.30436000       0.96136900       0.86796000
    35  C          0.30436000       0.53863100       0.36796000
    36  C          0.69564000       0.03863100       0.13204000
    37  C          0.83724000       0.39472900       0.80564000
    38  C          0.16276000       0.89472900       0.69436000
    39  C          0.16276000       0.60527100       0.19436000
    40  C          0.83724000       0.10527100       0.30564000
    41  O          0.88476000       0.47112120       0.10264000
    42  O          0.11524000       0.97112120       0.39736000
    43  O          0.11524000       0.52887880       0.89736000
    44  O          0.88476000       0.02887880       0.60264000
    45  O          0.01256000       0.41247120       0.08954000
    46  O         -0.01256000       0.91247120       0.41046000
    47  O         -0.01256000       0.58752880       0.91046000
    48  O          0.01256000       0.08752880       0.58954000
    49  C          0.76614000       0.46774100       0.78614000
    50  C          0.23386000       0.96774100       0.71386000
    51  C          0.23386000       0.53225900       0.21386000
    52  C          0.76614000       0.03225900       0.28614000
    53  H          0.89050000       0.37241300       0.86650000
    54  H          0.10950000       0.87241300       0.63350000
    55  H          0.10950000       0.62758700       0.13350000
    56  H          0.89050000       0.12758700       0.36650000
    57  H          0.64450000       0.48191200       0.57150000
    58  H          0.35550000       0.98191200       0.92850000
    59  H          0.35550000       0.51808800       0.42850000
    60  H          0.64450000       0.01808800       0.07150000
    61  H          0.76650000       0.49361300       0.82950000
    62  H          0.23350000       0.99361300       0.67050000
    63  H          0.23350000       0.50638700       0.17050000
    64  H          0.76650000       0.00638700       0.32950000
    65  H          0.59060000       0.38201500       0.21970000
    66  H          0.40940000       0.88201500       0.28030000
    67  H          0.40940000       0.61798500       0.78030000
    68  H          0.59060000       0.11798500       0.71970000
    69  O          0.49263000       0.38204700       0.03463000
    70  O          0.50737000       0.88204700       0.46537000
    71  O          0.50737000       0.61795300       0.96537000
    72  O          0.49263000       0.11795300       0.53463000
    73  O          0.40434000       0.44783700       0.02033000
    74  O          0.59566000       0.94783700       0.47967000
    75  O          0.59566000       0.55216300       0.97967000
    76  O          0.40434000       0.05216300       0.52033000
    77  N          0.38154000       0.33034800       0.80233000
    78  N          0.61846000       0.83034800       0.69767000
    79  N          0.61846000       0.66965200       0.19767000
    80  N          0.38154000       0.16965200       0.30233000
    81  C          0.35014000       0.28840900       0.76093000
    82  C          0.64986000       0.78840900       0.73907000
    83  C          0.64986000       0.71159100       0.23907000
    84  C          0.35014000       0.21159100       0.26093000
    85  C          0.31424000       0.36539800       0.72433000
    86  C          0.68576000       0.86539800       0.77567000
    87  C          0.68576000       0.63460200       0.27567000
    88  C          0.31424000       0.13460200       0.22433000
    89  C          0.32583000       0.40502800       0.79883000
    90  C          0.67417000       0.90502800       0.70117000
    91  C          0.67417000       0.59497200       0.20117000
    92  C          0.32583000       0.09497200       0.29883000
    93  C          0.41254000       0.41044800       0.95904000
    94  C          0.58746000       0.91044800       0.54096000
    95  C          0.58746000       0.58955200       0.04096000
    96  C          0.41254000       0.08955200       0.45904000
    97  C          0.18684000       0.27391900       0.70093000
    98  C          0.81316000       0.77391900       0.79907000
    99  C          0.81316000       0.72608100       0.29907000
   100  C          0.18684000       0.22608100       0.20093000
   101  C          0.16134000       0.23182900       0.67343000
   102  C          0.83866000       0.73182900       0.82657000
   103  C          0.83866000       0.76817100       0.32657000
   104  C          0.16134000       0.26817100       0.17343000
   105  C          0.25614000       0.43995100       0.71594000
   106  C          0.74386000       0.93995100       0.78406000
   107  C          0.74386000       0.56004900       0.28406000
   108  C          0.25614000       0.06004900       0.21594000
   109  C          0.23624000       0.36337110       0.56774000
   110  C          0.76376000       0.86337110       0.93226000
   111  C          0.76376000       0.63662890       0.43226000
   112  C          0.23624000       0.13662890       0.06774000
   113  C          0.29635000       0.20363100       0.70484000
   114  C          0.70365000       0.70363100       0.79516000
   115  C          0.70365000       0.79636900       0.29516000
   116  C          0.29635000       0.29636900       0.20484000
   117  F         -0.01735000       0.19115140       0.49655000
   118  F          0.01735000       0.69115140       0.00345000
   119  F          0.01735000       0.80884860       0.50345000
   120  F         -0.01735000       0.30884860      -0.00345000
   121  C          0.17624000       0.43678110       0.56494000
   122  C          0.82376000       0.93678110       0.93506000
   123  C          0.82376000       0.56321890       0.43506000
   124  C          0.17624000       0.06321890       0.06494000
   125  C          0.48644000       0.26027110       0.79354000
   126  C          0.51356000       0.76027110       0.70646000
   127  C          0.51356000       0.73972890       0.20646000
   128  C          0.48644000       0.23972890       0.29354000
   129  C          0.16905000       0.39835110       0.49084000
   130  C          0.83095000       0.89835110       0.00916000
   131  C          0.83095000       0.60164890       0.50916000
   132  C          0.16905000       0.10164890      -0.00916000
   133  C          0.45965000       0.21824110       0.76615000
   134  C          0.54035000       0.71824110       0.73385000
   135  C          0.54035000       0.78175890       0.23385000
   136  C          0.45965000       0.28175890       0.26615000
   137  C         -0.01715000       0.21571110       0.61675000
   138  C          0.01715000       0.71571110       0.88325000
   139  C          0.01715000       0.78428890       0.38325000
   140  C         -0.01715000       0.28428890       0.11675000
   141  F          0.91275000       0.19422000       0.71905000
   142  F          0.08725000       0.69422000       0.78095000
   143  F          0.08725000       0.80578000       0.28095000
   144  F          0.91275000       0.30578000       0.21905000
   145  F          0.87275000       0.24362100       0.56978000
   146  F          0.12725000       0.74362100       0.93022000
   147  F          0.12725000       0.75637900       0.43022000
   148  F          0.87275000       0.25637900       0.06978000
   149  H          0.23050000       0.33881100       0.52240000
   150  H          0.76950000       0.83881100       0.97760000
   151  H          0.76950000       0.66118900       0.47760000
   152  H          0.23050000       0.16118900       0.02240000
   153  H          0.09340000       0.29221100       0.69340000
   154  H          0.90660000       0.79221100       0.80660000
   155  H          0.90660000       0.70778900       0.30660000
   156  H          0.09340000       0.20778900       0.19340000
   157  H          0.26750000       0.46441400       0.77450000
   158  H          0.73250000       0.96441400       0.72550000
   159  H          0.73250000       0.53558600       0.22550000
   160  H          0.26750000       0.03558600       0.27450000
   161  H          0.11850000       0.46181300       0.51450000
   162  H          0.88150000       0.96181300      -0.01450000
   163  H          0.88150000       0.53818700       0.48550000
   164  H          0.11850000       0.03818700       0.01450000
   165  H          0.28560000       0.17671700       0.69460000
   166  H          0.71440000       0.67671700       0.80540000
   167  H          0.71440000       0.82328300       0.30540000
   168  H          0.28560000       0.32328300       0.19460000
   169  H          0.44250000       0.33591100       0.90250000
   170  H          0.55750000       0.83591100       0.59750000
   171  H          0.55750000       0.66408900       0.09750000
   172  H          0.44250000       0.16408900       0.40250000
   173  H          0.59950000       0.27291200       0.82850000
   174  H          0.40050000       0.77291200       0.67150000
   175  H          0.40050000       0.72708800       0.17150000
   176  H          0.59950000       0.22708800       0.32850000
   177  H          0.11750000       0.39321200       0.38050000
   178  H          0.88250000       0.89321200       0.11950000
   179  H          0.88250000       0.60678800       0.61950000
   180  H          0.11750000       0.10678800       0.88050000
   181  H          0.55260000       0.19741500       0.78660000
   182  H          0.44740000       0.69741500       0.71340000
   183  H          0.44740000       0.80258500       0.21340000
   184  H          0.55260000       0.30258500       0.28660000
   185  H          0.47070000       0.45071500       0.12570000
   186  H          0.52930000       0.95071500       0.37430000
   187  H          0.52930000       0.54928500       0.87430000
   188  H          0.47070000       0.04928500       0.62570000
