data_FARMAM
_symmetry_space_group_name_H-M    'P1'
_symmetry_Int_Tables_number       1
loop_
_symmetry_equiv_pos_site_id
_symmetry_equiv_pos_as_xyz
1 x,y,z
_cell_length_a                   12.4073
_cell_length_b                   14.2083
_cell_length_c                   13.3923
_cell_angle_alpha                90.0
_cell_angle_beta                 110.952
_cell_angle_gamma                90.0
loop_
_atom_site_label
_atom_site_type_symbol
_atom_site_fract_x
_atom_site_fract_y
_atom_site_fract_z
     1  C          0.67373000       0.47543000       0.38592000
     2  C          0.82627000       0.97543000       0.11408000
     3  C          0.32627000       0.52457000       0.61408000
     4  C          0.17373000       0.02457000       0.88592000
     5  C          0.64033000       0.47713000       0.47193000
     6  C          0.85967000       0.97713000       0.02807000
     7  C          0.35967000       0.52287000       0.52807000
     8  C          0.14033000       0.02287000       0.97193000
     9  C          0.64213000       0.39464000       0.53063000
    10  C          0.85787000       0.89464000       0.96937000
    11  C          0.35787000       0.60536000       0.46937000
    12  C          0.14213000       0.10536000       0.03063000
    13  C          0.67313000       0.31154000       0.50133000
    14  C          0.82687000       0.81154000      -0.00133000
    15  C          0.32687000       0.68846000       0.49867000
    16  C          0.17313000       0.18846000       0.00133000
    17  C          0.70563000       0.30413000       0.41042000
    18  C          0.79437000       0.80413000       0.08958000
    19  C          0.29437000       0.69587000       0.58958000
    20  C          0.20563000       0.19587000       0.91042000
    21  N          0.73702000       0.22982000       0.36652000
    22  N          0.76298000       0.72982000       0.13348000
    23  N          0.26298000       0.77018000       0.63348000
    24  N          0.23702000       0.27018000       0.86652000
    25  C          0.76053000       0.26802000       0.28282000
    26  C          0.73947000       0.76802000       0.21718000
    27  C          0.23947000       0.73198000       0.71718000
    28  C          0.26053000       0.23198000       0.78282000
    29  N          0.79552000       0.23452000       0.20332000
    30  N          0.70448000       0.73452000       0.29668000
    31  N          0.20448000       0.76548000       0.79668000
    32  N          0.29552000       0.26548000       0.70332000
    33  C          0.80082000       0.31202000       0.14932000
    34  C          0.69918000       0.81202000       0.35068000
    35  C          0.19918000       0.68798000       0.85068000
    36  C          0.30082000       0.18798000       0.64932000
    37  C          0.83413000       0.32403000       0.06013000
    38  C          0.66587000       0.82403000       0.43987000
    39  C          0.16587000       0.67597000       0.93987000
    40  C          0.33413000       0.17597000       0.56013000
    41  C          0.83693000       0.41103000       0.02003000
    42  C          0.66307000       0.91103000       0.47997000
    43  C          0.16307000       0.58897000       0.97997000
    44  C          0.33693000       0.08897000       0.52003000
    45  C          0.80593000       0.49053000       0.06473000
    46  C          0.69407000      -0.00947000       0.43527000
    47  C          0.19407000       0.50947000       0.93527000
    48  C          0.30593000       0.00947000       0.56473000
    49  C          0.77243000       0.48322000       0.14922000
    50  C          0.72757000       0.98322000       0.35078000
    51  C          0.22757000       0.51678000       0.85078000
    52  C          0.27243000       0.01678000       0.64922000
    53  N          0.76972000       0.39552000       0.19132000
    54  N          0.73028000       0.89552000       0.30868000
    55  N          0.23028000       0.60448000       0.80868000
    56  N          0.26972000       0.10448000       0.69132000
    57  C          0.74392000       0.36302000       0.27632000
    58  C          0.75608000       0.86302000       0.22368000
    59  C          0.25608000       0.63698000       0.72368000
    60  C          0.24392000       0.13698000       0.77632000
    61  N          0.70672000       0.39042000       0.35652000
    62  N          0.79328000       0.89042000       0.14348000
    63  N          0.29328000       0.60958000       0.64348000
    64  N          0.20672000       0.10958000       0.85652000
    65  H          0.67730000       0.53020000       0.34430000
    66  H          0.82270000       0.03020000       0.15570000
    67  H          0.32270000       0.46980000       0.65570000
    68  H          0.17730000       0.96980000       0.84430000
    69  H          0.61430000       0.53420000       0.48630000
    70  H          0.88570000       0.03420000       0.01370000
    71  H          0.38570000       0.46580000       0.51370000
    72  H          0.11430000       0.96580000       0.98630000
    73  H          0.62630000       0.40620000       0.60130000
    74  H          0.87370000       0.90620000       0.89870000
    75  H          0.37370000       0.59380000       0.39870000
    76  H          0.12630000       0.09380000       0.10130000
    77  H          0.67730000       0.25320000       0.54330000
    78  H          0.82270000       0.75320000       0.95670000
    79  H          0.32270000       0.74680000       0.45670000
    80  H          0.17730000       0.24680000       0.04330000
    81  H          0.86130000       0.26920000       0.04030000
    82  H          0.63870000       0.76920000       0.45970000
    83  H          0.13870000       0.73080000       0.95970000
    84  H          0.36130000       0.23080000       0.54030000
    85  H          0.85430000       0.41920000       0.95870000
    86  H          0.64570000       0.91920000       0.54130000
    87  H          0.14570000       0.58080000       0.04130000
    88  H          0.35430000       0.08080000       0.45870000
    89  H          0.81630000       0.55120000       0.04530000
    90  H          0.68370000       0.05120000       0.45470000
    91  H          0.18370000       0.44880000       0.95470000
    92  H          0.31630000       0.94880000       0.54530000
    93  H          0.74730000       0.53620000       0.18030000
    94  H          0.75270000       0.03620000       0.31970000
    95  H          0.25270000       0.46380000       0.81970000
    96  H          0.24730000       0.96380000       0.68030000
    97  C          0.60913000       0.08662000       0.89328000
    98  C          0.89087000       0.58662000       0.60672000
    99  C          0.39087000       0.91338000       0.10672000
   100  C          0.10913000       0.41338000       0.39328000
   101  C          0.61442000       0.13092000       0.80368000
   102  C          0.88558000       0.63092000       0.69632000
   103  C          0.38558000       0.86908000       0.19632000
   104  C          0.11442000       0.36908000       0.30368000
   105  N          0.64392000       0.07572000       0.72408000
   106  N          0.85608000       0.57572000       0.77592000
   107  N          0.35608000       0.92428000       0.27592000
   108  N          0.14392000       0.42428000       0.22408000
   109  O          0.65873000      -0.00852000       0.73928000
   110  O          0.84127000       0.49148000       0.76072000
   111  O          0.34127000       0.00852000       0.26072000
   112  O          0.15873000       0.50852000       0.23928000
   113  O          0.65142000       0.11682000       0.64648000
   114  O          0.84858000       0.61682000       0.85352000
   115  O          0.34858000       0.88318000       0.35352000
   116  O          0.15142000       0.38318000       0.14648000
   117  C          0.59213000       0.22502000       0.78578000
   118  C          0.90787000       0.72502000       0.71422000
   119  C          0.40787000       0.77498000       0.21422000
   120  C          0.09213000       0.27498000       0.28578000
   121  C          0.55862000       0.27722000       0.85638000
   122  C          0.94138000       0.77722000       0.64362000
   123  C          0.44138000       0.72278000       0.14362000
   124  C          0.05862000       0.22278000       0.35638000
   125  N          0.53832000       0.37752000       0.83018000
   126  N          0.96168000       0.87752000       0.66982000
   127  N          0.46168000       0.62248000       0.16982000
   128  N          0.03832000       0.12248000       0.33018000
   129  O          0.56483000       0.40922000       0.75978000
   130  O          0.93517000       0.90922000       0.74022000
   131  O          0.43517000       0.59078000       0.24022000
   132  O          0.06483000       0.09078000       0.25978000
   133  O          0.48933000       0.42432000       0.87498000
   134  O          0.01067000       0.92432000       0.62502000
   135  O          0.51067000       0.57568000       0.12502000
   136  O         -0.01067000       0.07568000       0.37498000
   137  C          0.54742000       0.23662000       0.94768000
   138  C          0.95258000       0.73662000       0.55232000
   139  C          0.45258000       0.76338000       0.05232000
   140  C          0.04742000       0.26338000       0.44768000
   141  C          0.50972000       0.26742000       0.03772000
   142  C         -0.00972000       0.76742000       0.46228000
   143  C          0.49028000       0.73258000       0.96228000
   144  C          0.00972000       0.23258000       0.53772000
   145  C          0.47063000       0.35202000       0.06352000
   146  C          0.02937000       0.85202000       0.43648000
   147  C          0.52937000       0.64798000       0.93648000
   148  C          0.97063000       0.14798000       0.56352000
   149  C          0.43853000       0.35622000       0.15332000
   150  C          0.06147000       0.85622000       0.34668000
   151  C          0.56147000       0.64378000       0.84668000
   152  C          0.93853000       0.14378000       0.65332000
   153  C          0.44623000       0.27782000       0.21462000
   154  C          0.05377000       0.77782000       0.28538000
   155  C          0.55377000       0.72218000       0.78538000
   156  C          0.94623000       0.22218000       0.71462000
   157  N          0.40973000       0.28482000       0.30782000
   158  N          0.09027000       0.78482000       0.19218000
   159  N          0.59027000       0.71518000       0.69218000
   160  N          0.90973000       0.21518000       0.80782000
   161  O          0.38442000       0.36102000       0.33372000
   162  O          0.11558000       0.86102000       0.16628000
   163  O          0.61558000       0.63898000       0.66628000
   164  O          0.88442000       0.13898000       0.83372000
   165  O          0.40973000       0.21372000       0.35603000
   166  O          0.09027000       0.71372000       0.14397000
   167  O          0.59027000       0.78628000       0.64397000
   168  O          0.90973000       0.28628000       0.85603000
   169  C          0.48633000       0.19252000       0.19242000
   170  C          0.01367000       0.69252000       0.30758000
   171  C          0.51367000       0.80748000       0.80758000
   172  C         -0.01367000       0.30748000       0.69242000
   173  C          0.51822000       0.18932000       0.10402000
   174  C          0.98178000       0.68932000       0.39598000
   175  C          0.48178000       0.81068000       0.89598000
   176  C          0.01822000       0.31068000       0.60402000
   177  C          0.56532000       0.10822000       0.06492000
   178  C          0.93468000       0.60822000       0.43508000
   179  C          0.43468000       0.89178000       0.93508000
   180  C          0.06532000       0.39178000       0.56492000
   181  O          0.59012000       0.03111000       0.10531000
   182  O          0.90988000       0.53111000       0.39469000
   183  O          0.40988000       0.96889000       0.89469000
   184  O          0.09012000       0.46889000       0.60531000
   185  C          0.57742000       0.14082000       0.96368000
   186  C          0.92258000       0.64082000       0.53632000
   187  C          0.42258000       0.85918000       0.03632000
   188  C          0.07742000       0.35918000       0.46368000
