data_FASJUG
_symmetry_space_group_name_H-M    'P1'
_symmetry_Int_Tables_number       1
loop_
_symmetry_equiv_pos_site_id
_symmetry_equiv_pos_as_xyz
1 x,y,z
_cell_length_a                   19.377417
_cell_length_b                   12.097311
_cell_length_c                   7.18826
_cell_angle_alpha                90.0
_cell_angle_beta                 92.0621
_cell_angle_gamma                90.0
loop_
_atom_site_label
_atom_site_type_symbol
_atom_site_fract_x
_atom_site_fract_y
_atom_site_fract_z
     1  N          0.41514110       0.89934190       0.40203000
     2  N          0.58485890       0.39934190       0.09797000
     3  N          0.58485890       0.10065810       0.59797000
     4  N          0.41514110       0.60065810       0.90203000
     5  N          0.51454110       0.81442000       0.39203000
     6  N          0.48545890       0.31442000       0.10797000
     7  N          0.48545890       0.18558000       0.60797000
     8  N          0.51454110       0.68558000       0.89203000
     9  O          0.31352900       0.78482000       0.22663000
    10  O          0.68647100       0.28482000       0.27337000
    11  O          0.68647100       0.21518000       0.77337000
    12  O          0.31352900       0.71518000       0.72663000
    13  C          0.45308140       0.81412000       0.46354000
    14  C          0.54691860       0.31412000       0.03646000
    15  C          0.54691860       0.18588000       0.53646000
    16  C          0.45308140       0.68588000       0.96354000
    17  H          0.43800000       0.76110000       0.54650000
    18  H          0.56200000       0.26110000       0.95350000
    19  H          0.56200000       0.23890000       0.45350000
    20  H          0.43800000       0.73890000       0.04650000
    21  C          0.51535140       0.90463000       0.27814000
    22  C          0.48464860       0.40463000       0.22186000
    23  C          0.48464860       0.09537000       0.72186000
    24  C          0.51535140       0.59537000       0.77814000
    25  H          0.55250000       0.92630000       0.20830000
    26  H          0.44750000       0.42630000       0.29170000
    27  H          0.44750000       0.07370000       0.79170000
    28  H          0.55250000       0.57370000       0.70830000
    29  C          0.45423140       0.95763000       0.28184000
    30  C          0.54576860       0.45763000       0.21816000
    31  C          0.54576860       0.04237000       0.71816000
    32  C          0.45423140       0.54237000       0.78184000
    33  H          0.44130000       0.02100000       0.21600000
    34  H          0.55870000       0.52100000       0.28400000
    35  H          0.55870000       0.97900000       0.78400000
    36  H          0.44130000       0.47900000       0.71600000
    37  C          0.34403120       0.92222000       0.44674000
    38  C          0.65596880       0.42222000       0.05326000
    39  C          0.65596880       0.07778000       0.55326000
    40  C          0.34403120       0.57778000       0.94674000
    41  H          0.33440000      -0.00010000       0.42480000
    42  H          0.66560000       0.49990000       0.07520000
    43  H          0.66560000       0.00010000       0.57520000
    44  H          0.33440000       0.50010000       0.92480000
    45  H          0.33810000       0.90750000       0.57770000
    46  H          0.66190000       0.40750000       0.92230000
    47  H          0.66190000       0.09250000       0.42230000
    48  H          0.33810000       0.59250000       0.07770000
    49  C          0.29329130       0.85392000       0.33334000
    50  C          0.70670870       0.35392000       0.16666000
    51  C          0.70670870       0.14608000       0.66666000
    52  C          0.29329130       0.64608000       0.83334000
    53  C          0.21894130       0.87262000       0.36213000
    54  C          0.78105870       0.37262000       0.13787000
    55  C          0.78105870       0.12738000       0.63787000
    56  C          0.21894130       0.62738000       0.86213000
    57  C          0.17163140       0.80012000       0.28014000
    58  C          0.82836860       0.30012000       0.21986000
    59  C          0.82836860       0.19988000       0.71986000
    60  C          0.17163140       0.69988000       0.78014000
    61  H          0.18690000       0.74150000       0.20850000
    62  H          0.81310000       0.24150000       0.29150000
    63  H          0.81310000       0.25850000       0.79150000
    64  H          0.18690000       0.75850000       0.70850000
    65  C          0.10186140       0.81483000       0.30444000
    66  C          0.89813860       0.31483000       0.19556000
    67  C          0.89813860       0.18517000       0.69556000
    68  C          0.10186140       0.68517000       0.80444000
    69  H          0.07000000       0.76580000       0.25060000
    70  H          0.93000000       0.26580000       0.24940000
    71  H          0.93000000       0.23420000       0.74940000
    72  H          0.07000000       0.73420000       0.75060000
    73  C          0.07973150       0.90243000       0.40904000
    74  C          0.92026850       0.40243000       0.09096000
    75  C          0.92026850       0.09757000       0.59096000
    76  C          0.07973150       0.59757000       0.90904000
    77  H          0.03280000       0.91220000       0.42590000
    78  H          0.96720000       0.41220000       0.07410000
    79  H          0.96720000       0.08780000       0.57410000
    80  H          0.03280000       0.58780000       0.92590000
    81  C          0.12584140       0.97483000       0.48774000
    82  C          0.87415860       0.47483000       0.01226000
    83  C          0.87415860       0.02517000       0.51226000
    84  C          0.12584140       0.52517000      -0.01226000
    85  H          0.11020000       0.03400000       0.55720000
    86  H          0.88980000       0.53400000       0.94280000
    87  H          0.88980000       0.96600000       0.44280000
    88  H          0.11020000       0.46600000       0.05720000
    89  C          0.19582130       0.96102000       0.46504000
    90  C          0.80417870       0.46102000       0.03496000
    91  C          0.80417870       0.03898000       0.53496000
    92  C          0.19582130       0.53898000       0.96504000
    93  H          0.22720000       0.01080000       0.51850000
    94  H          0.77280000       0.51080000      -0.01850000
    95  H          0.77280000      -0.01080000       0.48150000
    96  H          0.22720000       0.48920000       0.01850000
    97  N          0.92521130       0.67353000       0.38044000
    98  N          0.07478870       0.17353000       0.11956000
    99  N          0.07478870       0.32647000       0.61956000
   100  N          0.92521130       0.82647000       0.88044000
   101  O          0.61676900       0.68257160       0.43323000
   102  O          0.38323100       0.18257160       0.06677000
   103  O          0.38323100       0.31742840       0.56677000
   104  O          0.61676900       0.81742840       0.93323000
   105  H          0.58510000       0.72710000       0.41950000
   106  H          0.41490000       0.22710000       0.08050000
   107  H          0.41490000       0.27290000       0.58050000
   108  H          0.58510000       0.77290000       0.91950000
   109  O          0.68182100       0.83280180       0.40733000
   110  O          0.31817900       0.33280180       0.09267000
   111  O          0.31817900       0.16719820       0.59267000
   112  O          0.68182100       0.66719820       0.90733000
   113  O          0.92809110       0.76603000       0.31434000
   114  O          0.07190890       0.26603000       0.18566000
   115  O          0.07190890       0.23397000       0.68566000
   116  O          0.92809110       0.73397000       0.81434000
   117  O          0.97460110       0.61362000       0.40554000
   118  O          0.02539890       0.11362000       0.09446000
   119  O          0.02539890       0.38638000       0.59446000
   120  O          0.97460110       0.88638000       0.90554000
   121  C          0.67552140       0.73433000       0.42894000
   122  C          0.32447860       0.23433000       0.07106000
   123  C          0.32447860       0.26567000       0.57106000
   124  C          0.67552140       0.76567000       0.92894000
   125  C          0.73650130       0.66062000       0.45373000
   126  C          0.26349870       0.16062000       0.04627000
   127  C          0.26349870       0.33938000       0.54627000
   128  C          0.73650130       0.83938000       0.95373000
   129  C          0.80051130       0.69942000       0.40874000
   130  C          0.19948870       0.19942000       0.09126000
   131  C          0.19948870       0.30058000       0.59126000
   132  C          0.80051130       0.80058000       0.90874000
   133  H          0.80530000       0.77010000       0.36000000
   134  H          0.19470000       0.27010000       0.14000000
   135  H          0.19470000       0.22990000       0.64000000
   136  H          0.80530000       0.72990000       0.86000000
   137  C          0.85736140       0.63263000       0.43644000
   138  C          0.14263860       0.13263000       0.06356000
   139  C          0.14263860       0.36737000       0.56356000
   140  C          0.85736140       0.86737000       0.93644000
   141  C          0.85312150       0.52883000       0.50884000
   142  C          0.14687850       0.02883000      -0.00884000
   143  C          0.14687850       0.47117000       0.49116000
   144  C          0.85312150       0.97117000       0.00884000
   145  H          0.89250000       0.48570000       0.52800000
   146  H          0.10750000       0.98570000       0.97200000
   147  H          0.10750000       0.51430000       0.47200000
   148  H          0.89250000       0.01430000       0.02800000
   149  C          0.78884160       0.48923000       0.55294000
   150  C          0.21115840      -0.01077000       0.94706000
   151  C          0.21115840       0.51077000       0.44706000
   152  C          0.78884160       0.01077000       0.05294000
   153  H          0.78450000       0.41850000       0.60180000
   154  H          0.21550000       0.91850000       0.89820000
   155  H          0.21550000       0.58150000       0.39820000
   156  H          0.78450000       0.08150000       0.10180000
   157  C          0.73112140       0.55482000       0.52433000
   158  C          0.26887860       0.05482000       0.97567000
   159  C          0.26887860       0.44518000       0.47567000
   160  C          0.73112140       0.94518000       0.02433000
   161  H          0.68790000       0.52730000       0.55290000
   162  H          0.31210000       0.02730000       0.94710000
   163  H          0.31210000       0.47270000       0.44710000
   164  H          0.68790000       0.97270000       0.05290000
