data_FASMUH
_symmetry_space_group_name_H-M    'P1'
_symmetry_Int_Tables_number       1
loop_
_symmetry_equiv_pos_site_id
_symmetry_equiv_pos_as_xyz
1 x,y,z
_cell_length_a                   14.9036
_cell_length_b                   13.0787
_cell_length_c                   12.8367
_cell_angle_alpha                118.313
_cell_angle_beta                 92.074
_cell_angle_gamma                94.184
loop_
_atom_site_label
_atom_site_type_symbol
_atom_site_fract_x
_atom_site_fract_y
_atom_site_fract_z
     1  I          0.05641000       0.05861000       0.18001000
     2  I          0.94359000       0.94139000       0.81999000
     3  Br         0.94628000       0.18392000       0.05902000
     4  Br         0.05372000       0.81608000       0.94098000
     5  C          0.05521300       0.21431300       0.34261400
     6  C          0.94478700       0.78568700       0.65738600
     7  C          0.97668600       0.23491600       0.40171400
     8  C          0.02331400       0.76508400       0.59828600
     9  C          0.97868500       0.33461800       0.51381700
    10  C          0.02131500       0.66538200       0.48618300
    11  C          0.05431400       0.41201500       0.56381600
    12  C          0.94568600       0.58798500       0.43618400
    13  C          0.13311500       0.38831600       0.49901800
    14  C          0.86688500       0.61168400       0.50098200
    15  C          0.13491300       0.29151500       0.38871600
    16  C          0.86508700       0.70848500       0.61128400
    17  C          0.06071900       0.51681900       0.68322000
    18  C          0.93928100       0.48318100       0.31678000
    19  C          0.12121400       0.98008400       0.26801700
    20  C          0.87878600       0.01991600       0.73198300
    21  C          0.19801500       0.92218200       0.22661700
    22  C          0.80198500       0.07781800       0.77338300
    23  C          0.24021700       0.87167900       0.28581900
    24  C          0.75978300       0.12832100       0.71418100
    25  C          0.20901600       0.87438100       0.38412100
    26  C          0.79098400       0.12561900       0.61587900
    27  C          0.13241800       0.93307600       0.42732300
    28  C          0.86758200       0.06692400       0.57267700
    29  C          0.09031800       0.98037600       0.36812400
    30  C          0.90968200       0.01962400       0.63187600
    31  C          0.25631700       0.82117300       0.45092600
    32  C          0.74368300       0.17882700       0.54907400
    33  H          0.92260000       0.18250000       0.36670000
    34  H          0.07740000       0.81750000       0.63330000
    35  H          0.92550000       0.34860000       0.55640000
    36  H          0.07450000       0.65140000       0.44360000
    37  H          0.18700000       0.44110000       0.53380000
    38  H          0.81300000       0.55890000       0.46620000
    39  H          0.18750000       0.27780000       0.34490000
    40  H          0.81250000       0.72220000       0.65510000
    41  H          0.11920000       0.55750000       0.69260000
    42  H          0.88080000       0.44250000       0.30740000
    43  H          0.05550000       0.49570000       0.74500000
    44  H          0.94450000       0.50430000       0.25500000
    45  H          0.01500000       0.56650000       0.68770000
    46  H          0.98500000       0.43350000       0.31230000
    47  H          0.22230000       0.91900000       0.15690000
    48  H          0.77770000       0.08100000       0.84310000
    49  H          0.29240000       0.83180000       0.25490000
    50  H          0.70760000       0.16820000       0.74510000
    51  H          0.10880000       0.93780000       0.49790000
    52  H          0.89120000       0.06220000       0.50210000
    53  H          0.03700000       0.01810000       0.39800000
    54  H          0.96300000       0.98190000       0.60200000
    55  H          0.30310000       0.77790000       0.40540000
    56  H          0.69690000       0.22210000       0.59460000
    57  H          0.21220000       0.76930000       0.45990000
    58  H          0.78780000       0.23070000       0.54010000
    59  H          0.28200000       0.88010000       0.52770000
    60  H          0.71800000       0.11990000       0.47230000
    61  I          0.66251000       0.97809000       0.01751000
    62  I          0.33749000       0.02191000       0.98249000
    63  I          0.45061000       0.62019000       0.87989000
    64  I          0.54939000       0.37981000       0.12011000
    65  Br         0.64752000       0.71668000       0.79578000
    66  Br         0.35248000       0.28332000       0.20422000
    67  Br         0.56942000       0.13212000       0.90238000
    68  Br         0.43058000       0.86788000       0.09762000
    69  C          0.72441400       0.89808600       0.10591600
    70  C          0.27558600       0.10191400       0.89408400
    71  C          0.81681300       0.86918300       0.08811800
    72  C          0.18318700       0.13081700       0.91188200
    73  C          0.85761400       0.82028000       0.14592100
    74  C          0.14238600       0.17972000       0.85407900
    75  C          0.81481500       0.79968100       0.22861800
    76  C          0.18518500       0.20031900       0.77138200
    77  C          0.72591600       0.82108200       0.24101800
    78  C          0.27408400       0.17891800       0.75898200
    79  C          0.68271800       0.87328000       0.18592100
    80  C          0.31728200       0.12672000       0.81407900
    81  C          0.86152300       0.74287400       0.29032700
    82  C          0.13847700       0.25712600       0.70967300
    83  C          0.66261400       0.13731500       0.18621600
    84  C          0.33738600       0.86268500       0.81378400
    85  C          0.57881400       0.16211600       0.22921500
    86  C          0.42118600       0.83788400       0.77078500
    87  C          0.57871500       0.26141700       0.34361700
    88  C          0.42128500       0.73858300       0.65638300
    89  C          0.65941500       0.32841500       0.40651700
    90  C          0.34058500       0.67158500       0.59348300
    91  C          0.73871500       0.29931500       0.35281700
    92  C          0.26128500       0.70068500       0.64718300
    93  C          0.74051400       0.20591600       0.24141900
    94  C          0.25948600       0.79408400       0.75858100
    95  C          0.64801700       0.43031700       0.53181500
    96  C          0.35198300       0.56968300       0.46818500
    97  C          0.33481400       0.57438400       0.94768300
    98  C          0.66518600       0.42561600       0.05231700
    99  C          0.33941300       0.48908200       0.98258500
   100  C          0.66058700       0.51091800       0.01741500
   101  C          0.26851900       0.46408200       0.03591800
   102  C          0.73148100       0.53591800       0.96408200
   103  C          0.19222000       0.52218000       0.05441800
   104  C          0.80778000       0.47782000       0.94558200
   105  C          0.18731600       0.59837800       0.01022200
   106  C          0.81268400       0.40162200      -0.01022200
   107  C          0.25771500       0.62618300       0.95498000
   108  C          0.74228500       0.37381700       0.04502000
   109  C          0.11532200       0.48977300       0.11003200
   110  C          0.88467800       0.51022700       0.88996800
   111  C          0.44601500       0.44448400       0.73338500
   112  C          0.55398500       0.55551600       0.26661500
   113  C          0.49861400       0.36468300       0.74358300
   114  C          0.50138600       0.63531700       0.25641700
   115  C          0.49051600       0.25248200       0.64887900
   116  C          0.50948400       0.74751800       0.35112100
   117  C          0.43381800       0.21838200       0.54328200
   118  C          0.56618200       0.78161800       0.45671800
   119  C          0.38401800       0.30447900       0.54338100
   120  C          0.61598200       0.69552100       0.45661900
   121  C          0.39211600       0.41478200       0.63428300
   122  C          0.60788400       0.58521800       0.36571700
   123  C          0.43072000       0.09748000       0.44587800
   124  C          0.56928000       0.90252000       0.55412200
   125  H          0.84910000       0.88610000       0.03380000
   126  H          0.15090000       0.11390000       0.96620000
   127  H          0.91780000       0.79920000       0.12910000
   128  H          0.08220000       0.20080000       0.87090000
   129  H          0.69210000       0.79730000       0.28950000
   130  H          0.30790000       0.20270000       0.71050000
   131  H          0.62250000       0.89400000       0.20380000
   132  H          0.37750000       0.10600000       0.79620000
   133  H          0.92540000       0.74180000       0.28320000
   134  H          0.07460000       0.25820000       0.71680000
   135  H          0.83180000       0.66580000       0.24150000
   136  H          0.16820000       0.33420000       0.75850000
   137  H          0.84960000       0.76890000       0.37160000
   138  H          0.15040000       0.23110000       0.62840000
   139  H          0.52420000       0.11540000       0.18490000
   140  H          0.47580000       0.88460000       0.81510000
   141  H          0.52230000       0.28280000       0.37790000
   142  H          0.47770000       0.71720000       0.62210000
   143  H          0.79420000       0.34480000       0.39510000
   144  H          0.20580000       0.65520000       0.60490000
   145  H          0.79580000       0.18940000       0.20320000
   146  H          0.20420000       0.81060000       0.79680000
   147  H          0.70800000       0.45990000       0.56900000
   148  H          0.29200000       0.54010000       0.43100000
   149  H          0.61740000       0.39160000       0.56990000
   150  H          0.38260000       0.60840000       0.43010000
   151  H          0.61560000       0.49390000       0.53880000
   152  H          0.38440000       0.50610000       0.46120000
   153  H          0.39190000       0.44740000       0.96930000
   154  H          0.60810000       0.55260000       0.03070000
   155  H          0.27290000       0.40700000       0.06230000
   156  H          0.72710000       0.59300000       0.93770000
   157  H          0.13300000       0.63580000       0.01760000
   158  H          0.86700000       0.36420000       0.98240000
   159  H          0.25200000       0.67910000       0.92330000
   160  H          0.74800000       0.32090000       0.07670000
   161  H          0.08200000       0.55510000       0.12580000
   162  H          0.91800000       0.44490000       0.87420000
   163  H          0.08060000       0.41900000       0.05270000
   164  H          0.91940000       0.58100000       0.94730000
   165  H          0.12710000       0.48630000       0.18220000
   166  H          0.87290000       0.51370000       0.81780000
   167  H          0.53890000       0.38700000       0.81270000
   168  H          0.46110000       0.61300000       0.18730000
   169  H          0.52430000       0.19530000       0.65440000
   170  H          0.47570000       0.80470000       0.34560000
   171  H          0.34210000       0.28440000       0.47640000
   172  H          0.65790000       0.71560000       0.52360000
   173  H          0.35970000       0.47300000       0.62850000
   174  H          0.64030000       0.52700000       0.37150000
   175  H          0.39130000       0.10640000       0.39060000
   176  H          0.60870000       0.89360000       0.60940000
   177  H          0.48320000       0.06330000       0.40810000
   178  H          0.51680000       0.93670000       0.59190000
   179  H          0.39970000       0.04760000       0.47180000
   180  H          0.60030000       0.95240000       0.52820000
