data_FAVJAP
_symmetry_space_group_name_H-M    'P1'
_symmetry_Int_Tables_number       1
loop_
_symmetry_equiv_pos_site_id
_symmetry_equiv_pos_as_xyz
1 x,y,z
_cell_length_a                   23.51398
_cell_length_b                   6.06092
_cell_length_c                   15.26956
_cell_angle_alpha                90.0
_cell_angle_beta                 90.0
_cell_angle_gamma                90.0
loop_
_atom_site_label
_atom_site_type_symbol
_atom_site_fract_x
_atom_site_fract_y
_atom_site_fract_z
     1  Cl         0.13091200       0.65294900       0.31123400
     2  Cl         0.86908800       0.34705100       0.81123400
     3  Cl         0.63091200       0.34705100       0.31123400
     4  Cl         0.36908800       0.65294900       0.81123400
     5  Cl         0.23289200       0.87982900       0.01669400
     6  Cl         0.76710800       0.12017100       0.51669400
     7  Cl         0.73289200       0.12017100       0.01669400
     8  Cl         0.26710800       0.87982900       0.51669400
     9  O          0.51786700       0.29733000       0.59989120
    10  O          0.48213300       0.70267000       0.09989120
    11  O          0.01786700       0.70267000       0.59989120
    12  O          0.98213300       0.29733000       0.09989120
    13  H          0.50010000       0.18100000       0.60160000
    14  H          0.49990000       0.81900000       0.10160000
    15  H          0.00010000       0.81900000       0.60160000
    16  H         -0.00010000       0.18100000       0.10160000
    17  O          0.58218800       0.09653000       0.52786170
    18  O          0.41781200       0.90347000       0.02786170
    19  O          0.08218800       0.90347000       0.52786170
    20  O          0.91781200       0.09653000       0.02786170
    21  C          0.56563900       0.26604000       0.56082150
    22  C          0.43436100       0.73396000       0.06082150
    23  C          0.06563900       0.73396000       0.56082150
    24  C          0.93436100       0.26604000       0.06082150
    25  C          0.60021900       0.47614000       0.55605150
    26  C          0.39978100       0.52386000       0.05605150
    27  C          0.10021900       0.52386000       0.55605150
    28  C          0.89978100       0.47614000       0.05605150
    29  H          0.57830000       0.58880000       0.52610000
    30  H          0.42170000       0.41120000       0.02610000
    31  H          0.07830000       0.41120000       0.52610000
    32  H          0.92170000       0.58880000       0.02610000
    33  H          0.60800000       0.52810000       0.61490000
    34  H          0.39200000       0.47190000       0.11490000
    35  H          0.10800000       0.47190000       0.61490000
    36  H          0.89200000       0.52810000       0.11490000
    37  N          0.65415700       0.44243000       0.50967140
    38  N          0.34584300       0.55757000       0.00967140
    39  N          0.15415700       0.55757000       0.50967140
    40  N          0.84584300       0.44243000       0.00967140
    41  H          0.64680000       0.39040000       0.45560000
    42  H          0.35320000       0.60960000       0.95560000
    43  H          0.14680000       0.60960000       0.45560000
    44  H          0.85320000       0.39040000       0.95560000
    45  H          0.67460000       0.33970000       0.53830000
    46  H          0.32540000       0.66030000       0.03830000
    47  H          0.17460000       0.66030000       0.53830000
    48  H          0.82540000       0.33970000       0.03830000
    49  C          0.68845110       0.64694000       0.50203190
    50  C          0.31154890       0.35306000       0.00203190
    51  C          0.18845110       0.35306000       0.50203190
    52  C          0.81154890       0.64694000       0.00203190
    53  H          0.66490000       0.76460000       0.48080000
    54  H          0.33510000       0.23540000       0.98080000
    55  H          0.16490000       0.23540000       0.48080000
    56  H          0.83510000       0.76460000       0.98080000
    57  H          0.71930000       0.62280000       0.46190000
    58  H          0.28070000       0.37720000       0.96190000
    59  H          0.21930000       0.37720000       0.46190000
    60  H          0.78070000       0.62280000       0.96190000
    61  H          0.70340000       0.68560000       0.55850000
    62  H          0.29660000       0.31440000       0.05850000
    63  H          0.20340000       0.31440000       0.55850000
    64  H          0.79660000       0.68560000       0.05850000
    65  O          0.45292700      -0.01917000       0.61876110
    66  O          0.54707300       0.01917000       0.11876110
    67  O          0.95292700       0.01917000       0.61876110
    68  O          0.04707300      -0.01917000       0.11876110
    69  O          0.44827800       0.91823000       0.47583110
    70  O          0.55172200       0.08177000       0.97583110
    71  O          0.94827800       0.08177000       0.47583110
    72  O          0.05172200       0.91823000       0.97583110
    73  C          0.43865900       0.86924000       0.55258150
    74  C          0.56134100       0.13076000       0.05258150
    75  C          0.93865900       0.13076000       0.55258150
    76  C          0.06134100       0.86924000       0.05258150
    77  C          0.40602900       0.66154000       0.57056140
    78  C          0.59397100       0.33846000       0.07056140
    79  C          0.90602900       0.33846000       0.57056140
    80  C          0.09397100       0.66154000       0.07056140
    81  H          0.43180000       0.54830000       0.59160000
    82  H          0.56820000       0.45170000       0.09160000
    83  H          0.93180000       0.45170000       0.59160000
    84  H          0.06820000       0.54830000       0.09160000
    85  H          0.37790000       0.68900000       0.61580000
    86  H          0.62210000       0.31100000       0.11580000
    87  H          0.87790000       0.31100000       0.61580000
    88  H          0.12210000       0.68900000       0.11580000
    89  N          0.37742700       0.58413000       0.49039110
    90  N          0.62257300       0.41587000       0.99039110
    91  N          0.87742700       0.41587000       0.49039110
    92  N          0.12257300       0.58413000       0.99039110
    93  H          0.40320000       0.57820000       0.44680000
    94  H          0.59680000       0.42180000       0.94680000
    95  H          0.90320000       0.42180000       0.44680000
    96  H          0.09680000       0.57820000       0.94680000
    97  H          0.35080000       0.68360000       0.47510000
    98  H          0.64920000       0.31640000       0.97510000
    99  H          0.85080000       0.31640000       0.47510000
   100  H          0.14920000       0.68360000       0.97510000
   101  C          0.34997100       0.36504000       0.49862000
   102  C          0.65002900       0.63496000      -0.00138000
   103  C          0.84997100       0.63496000       0.49862000
   104  C          0.15002900       0.36504000      -0.00138000
   105  H          0.37830000       0.25590000       0.51180000
   106  H          0.62170000       0.74410000       0.01180000
   107  H          0.87830000       0.74410000       0.51180000
   108  H          0.12170000       0.25590000       0.01180000
   109  H          0.33150000       0.32800000       0.44450000
   110  H          0.66850000       0.67200000       0.94450000
   111  H          0.83150000       0.67200000       0.44450000
   112  H          0.16850000       0.32800000       0.94450000
   113  H          0.32230000       0.36920000       0.54480000
   114  H          0.67770000       0.63080000       0.04480000
   115  H          0.82230000       0.63080000       0.54480000
   116  H          0.17770000       0.36920000       0.04480000
   117  O          0.39545800       0.31433000       0.27001130
   118  O          0.60454200       0.68567000       0.77001130
   119  O          0.89545800       0.68567000       0.27001130
   120  O          0.10454200       0.31433000       0.77001130
   121  O          0.45977600       0.40493000       0.37231110
   122  O          0.54022400       0.59507000       0.87231110
   123  O          0.95977600       0.59507000       0.37231110
   124  O          0.04022400       0.40493000       0.87231110
   125  C          0.44124800       0.28543000       0.31567150
   126  C          0.55875200       0.71457000       0.81567150
   127  C          0.94124800       0.71457000       0.31567150
   128  C          0.05875200       0.28543000       0.81567150
   129  H          0.38271100       0.43640000       0.27391700
   130  H          0.61728900       0.56360000       0.77391700
   131  H          0.88271100       0.56360000       0.27391700
   132  H          0.11728900       0.43640000       0.77391700
   133  C          0.47129900       0.07354000       0.29140130
   134  C          0.52870100       0.92646000       0.79140130
   135  C          0.97129900       0.92646000       0.29140130
   136  C          0.02870100       0.07354000       0.79140130
   137  H          0.44540000       0.95010000       0.29850000
   138  H          0.55460000       0.04990000       0.79850000
   139  H          0.94540000       0.04990000       0.29850000
   140  H          0.05460000       0.95010000       0.79850000
   141  H          0.48280000       0.07940000       0.23040000
   142  H          0.51720000       0.92060000       0.73040000
   143  H          0.98280000       0.92060000       0.23040000
   144  H          0.01720000       0.07940000       0.73040000
   145  N          0.52154700       0.04063000       0.34689120
   146  N          0.47845300       0.95937000       0.84689120
   147  N          0.02154700       0.95937000       0.34689120
   148  N          0.97845300       0.04063000       0.84689120
   149  H          0.51100000       0.04810000       0.40350000
   150  H          0.48900000       0.95190000       0.90350000
   151  H          0.01100000       0.95190000       0.40350000
   152  H          0.98900000       0.04810000       0.90350000
   153  H          0.54650000       0.15040000       0.33680000
   154  H          0.45350000       0.84960000       0.83680000
   155  H          0.04650000       0.84960000       0.33680000
   156  H          0.95350000       0.15040000       0.83680000
   157  C          0.55013100       0.82516000       0.33090180
   158  C          0.44986900       0.17484000       0.83090180
   159  C          0.05013100       0.17484000       0.33090180
   160  C          0.94986900       0.82516000       0.83090180
   161  H          0.52310000       0.70780000       0.33790000
   162  H          0.47690000       0.29220000       0.83790000
   163  H          0.02310000       0.29220000       0.33790000
   164  H          0.97690000       0.70780000       0.83790000
   165  H          0.58060000       0.80650000       0.37210000
   166  H          0.41940000       0.19350000       0.87210000
   167  H          0.08060000       0.19350000       0.37210000
   168  H          0.91940000       0.80650000       0.87210000
   169  H          0.56510000       0.82250000       0.27240000
   170  H          0.43490000       0.17750000       0.77240000
   171  H          0.06510000       0.17750000       0.27240000
   172  H          0.93490000       0.82250000       0.77240000
   173  O          0.35161800       0.67373000       0.30322150
   174  O          0.64838200       0.32627000       0.80322150
   175  O          0.85161800       0.32627000       0.30322150
   176  O          0.14838200       0.67373000       0.80322150
   177  O          0.29207800       0.59073000       0.19558140
   178  O          0.70792200       0.40927000       0.69558140
   179  O          0.79207800       0.40927000       0.19558140
   180  O          0.20792200       0.59073000       0.69558140
   181  C          0.30902900       0.70824000       0.25385140
   182  C          0.69097100       0.29176000       0.75385140
   183  C          0.80902900       0.29176000       0.25385140
   184  C          0.19097100       0.70824000       0.75385140
   185  C          0.27933900       0.92744000       0.27188160
   186  C          0.72066100       0.07256000       0.77188160
   187  C          0.77933900       0.07256000       0.27188160
   188  C          0.22066100       0.92744000       0.77188160
   189  H          0.27160000       0.94060000       0.33400000
   190  H          0.72840000       0.05940000       0.83400000
   191  H          0.77160000       0.05940000       0.33400000
   192  H          0.22840000       0.94060000       0.83400000
   193  H          0.30410000       0.04810000       0.25500000
   194  H          0.69590000       0.95190000       0.75500000
   195  H          0.80410000       0.95190000       0.25500000
   196  H          0.19590000       0.04810000       0.75500000
   197  N          0.22600700       0.94123000       0.22281120
   198  N          0.77399300       0.05877000       0.72281120
   199  N          0.72600700       0.05877000       0.22281120
   200  N          0.27399300       0.94123000       0.72281120
   201  H          0.20190000       0.83770000       0.24310000
   202  H          0.79810000       0.16230000       0.74310000
   203  H          0.70190000       0.16230000       0.24310000
   204  H          0.29810000       0.83770000       0.74310000
   205  H          0.23300000       0.91100000       0.16610000
   206  H          0.76700000       0.08900000       0.66610000
   207  H          0.73300000       0.08900000       0.16610000
   208  H          0.26700000       0.91100000       0.66610000
   209  C          0.19783110       0.16154000       0.22882000
   210  C          0.80216890       0.83846000       0.72882000
   211  C          0.69783110       0.83846000       0.22882000
   212  C          0.30216890       0.16154000       0.72882000
   213  H          0.18690000       0.18910000       0.28840000
   214  H          0.81310000       0.81090000       0.78840000
   215  H          0.68690000       0.81090000       0.28840000
   216  H          0.31310000       0.18910000       0.78840000
   217  H          0.16470000       0.16320000       0.19210000
   218  H          0.83530000       0.83680000       0.69210000
   219  H          0.66470000       0.83680000       0.19210000
   220  H          0.33530000       0.16320000       0.69210000
   221  H          0.22380000       0.27390000       0.20990000
   222  H          0.77620000       0.72610000       0.70990000
   223  H          0.72380000       0.72610000       0.20990000
   224  H          0.27620000       0.27390000       0.70990000
