data_FEBSOX
_symmetry_space_group_name_H-M    'P1'
_symmetry_Int_Tables_number       1
loop_
_symmetry_equiv_pos_site_id
_symmetry_equiv_pos_as_xyz
1 x,y,z
_cell_length_a                   8.8732
_cell_length_b                   34.2458
_cell_length_c                   9.1752
_cell_angle_alpha                90.0
_cell_angle_beta                 105.9428
_cell_angle_gamma                90.0
loop_
_atom_site_label
_atom_site_type_symbol
_atom_site_fract_x
_atom_site_fract_y
_atom_site_fract_z
     1  C          0.53423000       0.56549600       0.95502000
     2  C          0.46577000       0.06549600       0.54498000
     3  C          0.46577000       0.43450400       0.04498000
     4  C          0.53423000       0.93450400       0.45502000
     5  H          0.52510000       0.53870000       0.93900000
     6  H          0.47490000       0.03870000       0.56100000
     7  H          0.47490000       0.46130000       0.06100000
     8  H          0.52510000       0.96130000       0.43900000
     9  C          0.58173000       0.58912600       0.85223000
    10  C          0.41827000       0.08912600       0.64777000
    11  C          0.41827000       0.41087400       0.14777000
    12  C          0.58173000       0.91087400       0.35223000
    13  H          0.60430000       0.57800000       0.76810000
    14  H          0.39570000       0.07800000       0.73190000
    15  H          0.39570000       0.42200000       0.23190000
    16  H          0.60430000       0.92200000       0.26810000
    17  N          0.59492000       0.62756500       0.87422000
    18  N          0.40508000       0.12756500       0.62578000
    19  N          0.40508000       0.37243500       0.12578000
    20  N          0.59492000       0.87243500       0.37422000
    21  H          0.61570000       0.64160000       0.79960000
    22  H          0.38430000       0.14160000       0.70040000
    23  H          0.38430000       0.35840000       0.20040000
    24  H          0.61570000       0.85840000       0.29960000
    25  C          0.56243000       0.64398700      -0.00367000
    26  C          0.43757000       0.14398700       0.50367000
    27  C          0.43757000       0.35601300       0.00367000
    28  C          0.56243000       0.85601300       0.49633000
    29  H          0.57220000       0.67090000       0.00900000
    30  H          0.42780000       0.17090000       0.49100000
    31  H          0.42780000       0.32910000      -0.00900000
    32  H          0.57220000       0.82910000       0.50900000
    33  C          0.51503000       0.62210600       0.10343000
    34  C          0.48497000       0.12210600       0.39657000
    35  C          0.48497000       0.37789400       0.89657000
    36  C          0.51503000       0.87789400       0.60343000
    37  H          0.49400000       0.63400000       0.18670000
    38  H          0.50600000       0.13400000       0.31330000
    39  H          0.50600000       0.36600000       0.81330000
    40  H          0.49400000       0.86600000       0.68670000
    41  C          0.49982000       0.58191600       0.08292000
    42  C          0.50018000       0.08191600       0.41708000
    43  C          0.50018000       0.41808400       0.91708000
    44  C          0.49982000       0.91808400       0.58292000
    45  C          0.44092000       0.55631600       0.19142000
    46  C          0.55908000       0.05631600       0.30858000
    47  C          0.55908000       0.44368400       0.80858000
    48  C          0.44092000       0.94368400       0.69142000
    49  N          0.46612000       0.56823600       0.33752000
    50  N          0.53388000       0.06823600       0.16248000
    51  N          0.53388000       0.43176400       0.66248000
    52  N          0.46612000       0.93176400       0.83752000
    53  H          0.52720000       0.58825000       0.37920000
    54  H          0.47280000       0.08825000       0.12080000
    55  H          0.47280000       0.41175000       0.62080000
    56  H          0.52720000       0.91175000       0.87920000
    57  H          0.43530000       0.55486000       0.40691900
    58  H          0.56470000       0.05486000       0.09308100
    59  H          0.56470000       0.44514000       0.59308100
    60  H          0.43530000       0.94514000       0.90691900
    61  O          0.37142000       0.52604400       0.14047180
    62  O          0.62858000       0.02604400       0.35952820
    63  O          0.62858000       0.47395600       0.85952820
    64  O          0.37142000       0.97395600       0.64047180
    65  C          0.18973000       0.49378600       0.76163000
    66  C          0.81027000       0.99378600       0.73837000
    67  C          0.81027000       0.50621400       0.23837000
    68  C          0.18973000       0.00621400       0.26163000
    69  H          0.24720000       0.51650000       0.79250000
    70  H          0.75280000       0.01650000       0.70750000
    71  H          0.75280000       0.48350000       0.20750000
    72  H          0.24720000       0.98350000       0.29250000
    73  C          0.11533000       0.47595700       0.85843000
    74  C          0.88467000       0.97595700       0.64157000
    75  C          0.88467000       0.52404300       0.14157000
    76  C          0.11533000       0.02404300       0.35843000
    77  H          0.12540000       0.48640000       0.95410000
    78  H          0.87460000       0.98640000       0.54590000
    79  H          0.87460000       0.51360000       0.04590000
    80  H          0.12540000       0.01360000       0.45410000
    81  N          0.03022000       0.44422500       0.81582000
    82  N          0.96978000       0.94422500       0.68418000
    83  N          0.96978000       0.55577500       0.18418000
    84  N          0.03022000       0.05577500       0.31582000
    85  C          0.02013000       0.42923700       0.67583000
    86  C         -0.02013000       0.92923700       0.82417000
    87  C         -0.02013000       0.57076300       0.32417000
    88  C          0.02013000       0.07076300       0.17583000
    89  H          0.96000000       0.40680000       0.64710000
    90  H          0.04000000       0.90680000       0.85290000
    91  H          0.04000000       0.59320000       0.35290000
    92  H          0.96000000       0.09320000       0.14710000
    93  C          0.09243000       0.44480600       0.57333000
    94  C          0.90757000       0.94480600       0.92667000
    95  C          0.90757000       0.55519400       0.42667000
    96  C          0.09243000       0.05519400       0.07333000
    97  H          0.08240000       0.43320000       0.47940000
    98  H          0.91760000       0.93320000       0.02060000
    99  H          0.91760000       0.56680000       0.52060000
   100  H          0.08240000       0.06680000       0.97940000
   101  C          0.17952000       0.47802600       0.61612000
   102  C          0.82048000       0.97802600       0.88388000
   103  C          0.82048000       0.52197400       0.38388000
   104  C          0.17952000       0.02197400       0.11612000
   105  C          0.26022000       0.49809600       0.51112000
   106  C          0.73978000      -0.00190400      -0.01112000
   107  C          0.73978000       0.50190400       0.48888000
   108  C          0.26022000       0.00190400       0.01112000
   109  N          0.24162000       0.48348600       0.36942000
   110  N          0.75838000       0.98348600       0.13058000
   111  N          0.75838000       0.51651400       0.63058000
   112  N          0.24162000       0.01651400       0.86942000
   113  H          0.28230000       0.49607000       0.30420000
   114  H          0.71770000      -0.00393000       0.19580000
   115  H          0.71770000       0.50393000       0.69580000
   116  H          0.28230000       0.00393000       0.80420000
   117  H          0.17930000       0.46325000       0.33530000
   118  H          0.82070000       0.96325000       0.16470000
   119  H          0.82070000       0.53675000       0.66470000
   120  H          0.17930000       0.03675000       0.83530000
   121  O          0.33862000       0.52721500       0.55901190
   122  O          0.66138000       0.02721500       0.94098810
   123  O          0.66138000       0.47278500       0.44098810
   124  O          0.33862000       0.97278500       0.05901190
   125  C          0.87263000       0.67349800       0.41513000
   126  C          0.12737000       0.17349800       0.08487000
   127  C          0.12737000       0.32650200       0.58487000
   128  C          0.87263000       0.82650200       0.91513000
   129  H          0.93140000       0.65190000       0.45940000
   130  H          0.06860000       0.15190000       0.04060000
   131  H          0.06860000       0.34810000       0.54060000
   132  H          0.93140000       0.84810000       0.95940000
   133  C          0.92973000       0.69800100       0.32203000
   134  C          0.07027000       0.19800100       0.17797000
   135  C          0.07027000       0.30199900       0.67797000
   136  C          0.92973000       0.80199900       0.82203000
   137  H          0.02600000       0.69240000       0.30520000
   138  H          0.97400000       0.19240000       0.19480000
   139  H          0.97400000       0.30760000       0.69480000
   140  H          0.02600000       0.80760000       0.80520000
   141  C          0.84904000       0.73008900       0.25443000
   142  C          0.15096000       0.23008900       0.24557000
   143  C          0.15096000       0.26991100       0.74557000
   144  C          0.84904000       0.76991100       0.75443000
   145  H          0.88870000       0.74580000       0.19100000
   146  H          0.11130000       0.24580000       0.30900000
   147  H          0.11130000       0.25420000       0.80900000
   148  H          0.88870000       0.75420000       0.69100000
   149  C          0.71244000       0.73843700       0.28083000
   150  C          0.28756000       0.23843700       0.21917000
   151  C          0.28756000       0.26156300       0.71917000
   152  C          0.71244000       0.76156300       0.78083000
   153  H          0.65630000       0.76060000       0.23950000
   154  H          0.34370000       0.26060000       0.26050000
   155  H          0.34370000       0.23940000       0.76050000
   156  H          0.65630000       0.73940000       0.73950000
   157  C          0.65583000       0.71316600       0.37183000
   158  C          0.34417000       0.21316600       0.12817000
   159  C          0.34417000       0.28683400       0.62817000
   160  C          0.65583000       0.78683400       0.87183000
   161  C          0.73382000       0.68044600       0.44232000
   162  C          0.26618000       0.18044600       0.05768000
   163  C          0.26618000       0.31955400       0.55768000
   164  C          0.73382000       0.81955400       0.94232000
   165  C          0.68122000       0.65449600       0.55402000
   166  C          0.31878000       0.15449600       0.94598000
   167  C          0.31878000       0.34550400       0.44598000
   168  C          0.68122000       0.84550400       0.05402000
   169  O          0.68102000       0.61891400       0.53772000
   170  O          0.31898000       0.11891400       0.96228000
   171  O          0.31898000       0.38108600       0.46228000
   172  O          0.68102000       0.88108600       0.03772000
   173  O          0.64562000       0.67215400       0.66397180
   174  O          0.35438000       0.17215400       0.83602820
   175  O          0.35438000       0.32784600       0.33602820
   176  O          0.64562000       0.82784600       0.16397180
   177  N          0.50313000       0.72035800       0.38713000
   178  N          0.49687000       0.22035800       0.11287000
   179  N          0.49687000       0.27964200       0.61287000
   180  N          0.50313000       0.77964200       0.88713000
   181  O          0.41463000       0.69286800       0.36373000
   182  O          0.58537000       0.19286800       0.13627000
   183  O          0.58537000       0.30713200       0.63627000
   184  O          0.41463000       0.80713200       0.86373000
   185  O          0.47183000       0.75305800       0.42093000
   186  O          0.52817000       0.25305800       0.07907000
   187  O          0.52817000       0.24694200       0.57907000
   188  O          0.47183000       0.74694200       0.92093000
   189  C          0.81093000       0.30334700       0.23783000
   190  C          0.18907000       0.80334700       0.26217000
   191  C          0.18907000       0.69665300       0.76217000
   192  C          0.81093000       0.19665300       0.73783000
   193  H          0.81400000       0.27700000       0.21380000
   194  H          0.18600000       0.77700000       0.28620000
   195  H          0.18600000       0.72300000       0.78620000
   196  H          0.81400000       0.22300000       0.71380000
   197  C          0.74283000       0.31517800       0.34943000
   198  C          0.25717000       0.81517800       0.15057000
   199  C          0.25717000       0.68482200       0.65057000
   200  C          0.74283000       0.18482200       0.84943000
   201  H          0.70040000       0.29660000       0.40080000
   202  H          0.29960000       0.79660000       0.09920000
   203  H          0.29960000       0.70340000       0.59920000
   204  H          0.70040000       0.20340000       0.90080000
   205  C          0.73743000       0.35408800       0.38473000
   206  C          0.26257000       0.85408800       0.11527000
   207  C          0.26257000       0.64591200       0.61527000
   208  C          0.73743000       0.14591200       0.88473000
   209  H          0.69070000       0.36180000       0.45930000
   210  H          0.30930000       0.86180000       0.04070000
   211  H          0.30930000       0.63820000       0.54070000
   212  H          0.69070000       0.13820000       0.95930000
   213  C          0.80193000       0.38183800       0.30873000
   214  C          0.19807000       0.88183800       0.19127000
   215  C          0.19807000       0.61816200       0.69127000
   216  C          0.80193000       0.11816200       0.80873000
   217  H          0.79840000       0.40810000       0.33360000
   218  H          0.20160000       0.90810000       0.16640000
   219  H          0.20160000       0.59190000       0.66640000
   220  H          0.79840000       0.09190000       0.83360000
   221  C          0.87222000       0.37089600       0.19532000
   222  C          0.12778000       0.87089600       0.30468000
   223  C          0.12778000       0.62910400       0.80468000
   224  C          0.87222000       0.12910400       0.69532000
   225  C          0.87452000       0.33119700       0.16243000
   226  C          0.12548000       0.83119700       0.33757000
   227  C          0.12548000       0.66880300       0.83757000
   228  C          0.87452000       0.16880300       0.66243000
   229  N          0.95143000       0.31693600       0.04863000
   230  N          0.04857000       0.81693600       0.45137000
   231  N          0.04857000       0.68306400       0.95137000
   232  N          0.95143000       0.18306400       0.54863000
   233  O          0.06822000       0.33261700       0.04393000
   234  O          0.93178000       0.83261700       0.45607000
   235  O          0.93178000       0.66738300       0.95607000
   236  O          0.06822000       0.16738300       0.54393000
   237  O          0.89493000       0.28969700       0.96577000
   238  O          0.10507000       0.78969700       0.53423000
   239  O          0.10507000       0.71030300       0.03423000
   240  O          0.89493000       0.21030300       0.46577000
   241  C          0.93553000       0.40201700       0.11273000
   242  C          0.06447000       0.90201700       0.38727000
   243  C          0.06447000       0.59798300       0.88727000
   244  C          0.93553000       0.09798300       0.61273000
   245  O          0.88542000       0.40033600       0.96258000
   246  O          0.11458000       0.90033600       0.53742000
   247  O          0.11458000       0.59966400       0.03742000
   248  O          0.88542000       0.09966400       0.46258000
   249  H          0.92840000       0.41708000       0.91960000
   250  H          0.07160000       0.91708000       0.58040000
   251  H          0.07160000       0.58292000       0.08040000
   252  H          0.92840000       0.08292000       0.41960000
   253  O          0.01952000       0.42716500       0.18372000
   254  O         -0.01952000       0.92716500       0.31628000
   255  O         -0.01952000       0.57283500       0.81628000
   256  O          0.01952000       0.07283500       0.68372000
