data_FECBEW
_symmetry_space_group_name_H-M    'P1'
_symmetry_Int_Tables_number       1
loop_
_symmetry_equiv_pos_site_id
_symmetry_equiv_pos_as_xyz
1 x,y,z
_cell_length_a                   12.21181
_cell_length_b                   25.36332
_cell_length_c                   5.69181
_cell_angle_alpha                90.0
_cell_angle_beta                 90.0
_cell_angle_gamma                90.0
loop_
_atom_site_label
_atom_site_type_symbol
_atom_site_fract_x
_atom_site_fract_y
_atom_site_fract_z
     1  I          0.76141700       0.77989300       0.06249130
     2  I          0.23858300       0.22010700       0.06249130
     3  I          0.26141700       0.72010700       0.93750870
     4  I          0.73858300       0.27989300       0.93750870
     5  I          0.14134700       0.92958300       0.24393160
     6  I          0.85865300       0.07041700       0.24393160
     7  I          0.64134700       0.57041700       0.75606840
     8  I          0.35865300       0.42958300       0.75606840
     9  I          0.39214900       0.97956300       0.15242000
    10  I          0.60785100       0.02043700       0.15242000
    11  I          0.89214900       0.52043700       0.84758000
    12  I          0.10785100       0.47956300       0.84758000
    13  S          0.07452000       0.78845110       0.41676000
    14  S          0.92548000       0.21154890       0.41676000
    15  S          0.57452000       0.71154890       0.58324000
    16  S          0.42548000       0.28845110       0.58324000
    17  S          0.05102000       0.82450110       0.73075000
    18  S          0.94898000       0.17549890       0.73075000
    19  S          0.55102000       0.67549890       0.26925000
    20  S          0.44898000       0.32450110       0.26925000
    21  N          0.93118000       0.71884000       0.61051900
    22  N          0.06882000       0.28116000       0.61051900
    23  N          0.43118000       0.78116000       0.38948100
    24  N          0.56882000       0.21884000       0.38948100
    25  H          0.91680000       0.74290000       0.71230000
    26  H          0.08320000       0.25710000       0.71230000
    27  H          0.41680000       0.75710000       0.28770000
    28  H          0.58320000       0.24290000       0.28770000
    29  N          0.94811000       0.91294000       0.79891900
    30  N          0.05189000       0.08706000       0.79891900
    31  N          0.44811000       0.58706000       0.20108100
    32  N          0.55189000       0.41294000       0.20108100
    33  H         -0.00280000       0.91480000       0.90710000
    34  H          0.00280000       0.08520000       0.90710000
    35  H          0.49720000       0.58520000       0.09290000
    36  H          0.50280000       0.41480000       0.09290000
    37  N          0.87758000       0.86584000       0.49201700
    38  N          0.12242000       0.13416000       0.49201700
    39  N          0.37758000       0.63416000       0.50798300
    40  N          0.62242000       0.36584000       0.50798300
    41  H          0.88030000       0.83760000       0.40810000
    42  H          0.11970000       0.16240000       0.40810000
    43  H          0.38030000       0.66240000       0.59190000
    44  H          0.61970000       0.33760000       0.59190000
    45  N          0.03891100       0.69014000       0.31230000
    46  N          0.96108900       0.30986000       0.31230000
    47  N          0.53891100       0.80986000       0.68770000
    48  N          0.46108900       0.19014000       0.68770000
    49  H          0.09490000       0.69610000       0.22510000
    50  H          0.90510000       0.30390000       0.22510000
    51  H          0.59490000       0.80390000       0.77490000
    52  H          0.40510000       0.19610000       0.77490000
    53  C          0.94751000       0.87224000       0.65920000
    54  C          0.05249000       0.12776000       0.65920000
    55  C          0.44751000       0.62776000       0.34080000
    56  C          0.55249000       0.37224000       0.34080000
    57  C          0.98521500       0.63785000       0.29030000
    58  C          0.01478500       0.36215000       0.29030000
    59  C          0.48521500       0.86215000       0.70970000
    60  C          0.51478500       0.13785000       0.70970000
    61  H          0.02660000       0.61140000       0.37550000
    62  H          0.97340000       0.38860000       0.37550000
    63  H          0.52660000       0.88860000       0.62450000
    64  H          0.47340000       0.11140000       0.62450000
    65  H          0.98190000       0.62750000       0.12620000
    66  H          0.01810000       0.37250000       0.12620000
    67  H          0.48190000       0.87250000       0.87380000
    68  H          0.51810000       0.12750000       0.87380000
    69  C          0.76341400       0.93516000       0.66530000
    70  C          0.23658600       0.06484000       0.66530000
    71  C          0.26341400       0.56484000       0.33470000
    72  C          0.73658600       0.43516000       0.33470000
    73  H          0.71430000       0.96390000       0.62690000
    74  H          0.28570000       0.03610000       0.62690000
    75  H          0.21430000       0.53610000       0.37310000
    76  H          0.78570000       0.46390000       0.37310000
    77  H          0.72610000       0.91160000       0.77310000
    78  H          0.27390000       0.08840000       0.77310000
    79  H          0.22610000       0.58840000       0.22690000
    80  H          0.77390000       0.41160000       0.22690000
    81  C          0.87041500       0.64236000       0.39030000
    82  C          0.12958500       0.35764000       0.39030000
    83  C          0.37041500       0.85764000       0.60970000
    84  C          0.62958500       0.14236000       0.60970000
    85  H          0.82450000       0.66150000       0.28060000
    86  H          0.17550000       0.33850000       0.28060000
    87  H          0.32450000       0.83850000       0.71940000
    88  H          0.67550000       0.16150000       0.71940000
    89  H          0.83980000       0.60730000       0.40920000
    90  H          0.16020000       0.39270000       0.40920000
    91  H          0.33980000       0.89270000       0.59080000
    92  H          0.66020000       0.10730000       0.59080000
    93  C          0.86901300       0.66945000       0.61730000
    94  C          0.13098700       0.33055000       0.61730000
    95  C          0.36901300       0.83055000       0.38270000
    96  C          0.63098700       0.16945000       0.38270000
    97  H          0.90010000       0.64640000       0.73610000
    98  H          0.09990000       0.35360000       0.73610000
    99  H          0.40010000       0.85360000       0.26390000
   100  H          0.59990000       0.14640000       0.26390000
   101  H          0.79390000       0.67680000       0.66110000
   102  H          0.20610000       0.32320000       0.66110000
   103  H          0.29390000       0.82320000       0.33890000
   104  H          0.70610000       0.17680000       0.33890000
   105  C          0.86621600       0.95635000       0.77730000
   106  C          0.13378400       0.04365000       0.77730000
   107  C          0.36621600       0.54365000       0.22270000
   108  C          0.63378400       0.45635000       0.22270000
   109  H          0.89610000       0.98460000       0.68180000
   110  H          0.10390000       0.01540000       0.68180000
   111  H          0.39610000       0.51540000       0.31820000
   112  H          0.60390000       0.48460000       0.31820000
   113  H          0.84930000       0.97040000       0.93140000
   114  H          0.15070000       0.02960000       0.93140000
   115  H          0.34930000       0.52960000       0.06860000
   116  H          0.65070000       0.47040000       0.06860000
   117  C          0.00779000       0.72744000       0.45420000
   118  C         -0.00779000       0.27256000       0.45420000
   119  C          0.50779000       0.77256000       0.54580000
   120  C          0.49221000       0.22744000       0.54580000
   121  C          0.79341300       0.90536000       0.44230000
   122  C          0.20658700       0.09464000       0.44230000
   123  C          0.29341300       0.59464000       0.55770000
   124  C          0.70658700       0.40536000       0.55770000
   125  H          0.72870000       0.88810000       0.37910000
   126  H          0.27130000       0.11190000       0.37910000
   127  H          0.22870000       0.61190000       0.62090000
   128  H          0.77130000       0.38810000       0.62090000
   129  H          0.82030000       0.92980000       0.32490000
   130  H          0.17970000       0.07020000       0.32490000
   131  H          0.32030000       0.57020000       0.67510000
   132  H          0.67970000       0.42980000       0.67510000
