data_FECCUP
_symmetry_space_group_name_H-M    'P1'
_symmetry_Int_Tables_number       1
loop_
_symmetry_equiv_pos_site_id
_symmetry_equiv_pos_as_xyz
1 x,y,z
_cell_length_a                   9.7222
_cell_length_b                   10.8052
_cell_length_c                   10.9472
_cell_angle_alpha                67.9384
_cell_angle_beta                 66.2504
_cell_angle_gamma                72.9784
loop_
_atom_site_label
_atom_site_type_symbol
_atom_site_fract_x
_atom_site_fract_y
_atom_site_fract_z
     1  C          0.89087180       0.77956840       0.85017170
     2  C          0.10912820       0.22043160       0.14982830
     3  C          0.86065190       0.89537840       0.74850180
     4  C          0.13934810       0.10462160       0.25149820
     5  H          0.91387700       0.96852500       0.71709400
     6  H          0.08612300       0.03147500       0.28290600
     7  C          0.75147180       0.90468850       0.69191160
     8  C          0.24852820       0.09531150       0.30808840
     9  C          0.72272000       0.03187160       0.57704180
    10  C          0.27728000       0.96812840       0.42295820
    11  C          0.67455170       0.79538850       0.74417160
    12  C          0.32544830       0.20461150       0.25582840
    13  C          0.70408190       0.68015840       0.84865170
    14  C          0.29591810       0.31984160       0.15134830
    15  H          0.64869200       0.60790600       0.88326600
    16  H          0.35130800       0.39209400       0.11673400
    17  C          0.81472190       0.67135840       0.90193170
    18  C          0.18527810       0.32864160       0.09806830
    19  H          0.83782900       0.59280500       0.97244200
    20  H          0.16217100       0.40719500       0.02755800
    21  C          0.40596190       0.79018000       0.78446190
    22  C          0.59403810       0.20982000       0.21553810
    23  H          0.40526300       0.69778900       0.84827500
    24  H          0.59473700       0.30221100       0.15172500
    25  H          0.33425000       0.80991600       0.73466600
    26  H          0.66575000       0.19008400       0.26533400
    27  H          0.37558300       0.85454900       0.83794200
    28  H          0.62441700       0.14545100       0.16205800
    29  C          0.61582000       0.70224820       0.60251190
    30  C          0.38418000       0.29775180       0.39748810
    31  H          0.71899200       0.71232700       0.53664200
    32  H          0.28100800       0.28767300       0.46335800
    33  H          0.54699900       0.71788400       0.55098900
    34  H          0.45300100       0.28211600       0.44901100
    35  H          0.61681500       0.61046200       0.66760500
    36  H          0.38318500       0.38953800       0.33239500
    37  N          0.00948160       0.77070850       0.90617150
    38  N          0.99051840       0.22929150       0.09382850
    39  N          0.56208150       0.80261860       0.68197140
    40  N          0.43791850       0.19738140       0.31802860
    41  O          0.05758160       0.65949860       0.97445150
    42  O          0.94241840       0.34050140       0.02554850
    43  O          0.05430160       0.87434860       0.88210160
    44  O          0.94569840       0.12565140       0.11789840
    45  O          0.79889170       0.12111130       0.54301160
    46  O          0.20110830       0.87888870       0.45698840
    47  O          0.62584160       0.03740120       0.52515140
    48  O          0.37415840       0.96259880       0.47484860
    49  H          0.56130000       0.89480000       0.61920000
    50  H          0.43870000       0.10520000       0.38080000
    51  C          0.54457180       0.73187170       0.18610170
    52  C          0.45542820       0.26812830       0.81389830
    53  C          0.60307180       0.60425160       0.25648160
    54  C          0.39692820       0.39574840       0.74351840
    55  H          0.56003700       0.52843100       0.27374700
    56  H          0.43996300       0.47156900       0.72625300
    57  C          0.72330180       0.58556150       0.30201160
    58  C          0.27669820       0.41443850       0.69798840
    59  C          0.75566180       0.45072160       0.40282170
    60  C          0.24433820       0.54927840       0.59717830
    61  C          0.79534170       0.69766150       0.26801160
    62  C          0.20465830       0.30233850       0.73198840
    63  C          0.72737190       0.82733160       0.20108180
    64  C          0.27262810       0.17266840       0.79891820
    65  H          0.76812700       0.90468600       0.18320500
    66  H          0.23187300       0.09531400       0.81679500
    67  C          0.60461190       0.84404160       0.16153180
    68  C          0.39538810       0.15595840       0.83846820
    69  H          0.56076100       0.93205600       0.11745800
    70  H          0.43923900       0.06794400       0.88254200
    71  C          0.03682000       0.55897180       0.29598190
    72  C          0.96318000       0.44102820       0.70401810
    73  H          0.13776000       0.58279200       0.23659500
    74  H          0.86224000       0.41720800       0.76340500
    75  H          0.01101600       0.50213200       0.25913500
    76  H          0.98898400       0.49786800       0.74086500
    77  H          0.03764000       0.50918300       0.39127600
    78  H          0.96236000       0.49081700       0.60872400
    79  C          0.98262000       0.79878190       0.28102000
    80  C          0.01738000       0.20121810       0.71898000
    81  H          0.03541000       0.83960400       0.18187600
    82  H          0.96459000       0.16039600       0.81812400
    83  H          0.05406600       0.76994300       0.33295500
    84  H          0.94593400       0.23005700       0.66704500
    85  H          0.89780600       0.86546900       0.31733400
    86  H          0.10219400       0.13453100       0.68266600
    87  N          0.92410150       0.68179130       0.29735150
    88  N          0.07589850       0.31820870       0.70264850
    89  N          0.42479170       0.74576160       0.13406150
    90  N          0.57520830       0.25423840       0.86593850
    91  O          0.39351150       0.64268150       0.13463140
    92  O          0.60648850       0.35731850       0.86536860
    93  O          0.36021160       0.86101150       0.08662160
    94  O          0.63978840       0.13898850       0.91337840
    95  O          0.77092150       0.43896120       0.51125130
    96  O          0.22907850       0.56103880       0.48874870
    97  O          0.75413160       0.34823110       0.36584130
    98  O          0.24586840       0.65176890       0.63415870
    99  H          0.76781100       0.27536000       0.42756800
   100  H          0.23218900       0.72464000       0.57243200
