data_FEJGUZ
_symmetry_space_group_name_H-M    'P1'
_symmetry_Int_Tables_number       1
loop_
_symmetry_equiv_pos_site_id
_symmetry_equiv_pos_as_xyz
1 x,y,z
_cell_length_a                   10.92032
_cell_length_b                   11.99972
_cell_length_c                   12.89652
_cell_angle_alpha                84.64831
_cell_angle_beta                 73.40459
_cell_angle_gamma                75.85351
loop_
_atom_site_label
_atom_site_type_symbol
_atom_site_fract_x
_atom_site_fract_y
_atom_site_fract_z
     1  S          0.28629500       0.22047400       0.37520400
     2  S          0.71370500       0.77952600       0.62479600
     3  S          0.52812500       0.39074400       0.77932400
     4  S          0.47187500       0.60925600       0.22067600
     5  O          0.51221140       0.48541110       0.84574110
     6  O          0.48778860       0.51458890       0.15425890
     7  O          0.62810150       0.05706120       0.79843110
     8  O          0.37189850       0.94293880       0.20156890
     9  O          0.22353130       0.14972120       0.45912110
    10  O          0.77646870       0.85027880       0.54087890
    11  O          0.61893130       0.38169120       0.67442110
    12  O          0.38106870       0.61830880       0.32557890
    13  O          0.22122130       0.33672120       0.35997110
    14  O          0.77877870       0.66327880       0.64002890
    15  N          0.57924160       0.26966140       0.84282130
    16  N          0.42075840       0.73033860       0.15717870
    17  H          0.65280000       0.22310000       0.80880000
    18  H          0.34720000       0.77690000       0.19120000
    19  N          0.31635160       0.14787140       0.26514130
    20  N          0.68364840       0.85212860       0.73485870
    21  H          0.28650000       0.08490000       0.27350000
    22  H          0.71350000       0.91510000       0.72650000
    23  C          0.64152000       0.11090180       0.42507170
    24  C          0.35848000       0.88909820       0.57492830
    25  H          0.69350000       0.03940000       0.44170000
    26  H          0.30650000       0.96060000       0.55830000
    27  C          0.37292190       0.38610170       0.76790160
    28  C          0.62707810       0.61389830       0.23209840
    29  C          0.44145190       0.21927170       0.39081150
    30  C          0.55854810       0.78072830       0.60918850
    31  C          0.56752190       0.03077170       0.89176160
    32  C          0.43247810       0.96922830       0.10823840
    33  C          0.38401190       0.17485170       0.15987160
    34  C          0.61598810       0.82514830       0.84012840
    35  C          0.45972000       0.31667170       0.02864160
    36  C          0.54028000       0.68332830       0.97135840
    37  H          0.46770000       0.39380000       0.01190000
    38  H          0.53230000       0.60620000       0.98810000
    39  C          0.44088180       0.08978160       0.08085160
    40  C          0.55911820       0.91021840       0.91914840
    41  C          0.50605180       0.11999170       0.97345160
    42  C          0.49394820       0.88000830       0.02654840
    43  C          0.51942000       0.11496180       0.41304170
    44  C          0.48058000       0.88503820       0.58695830
    45  H          0.48850000       0.04650000       0.41990000
    46  H          0.51150000       0.95350000       0.58010000
    47  C          0.13862000       0.43388180       0.83451170
    48  C          0.86138000       0.56611820       0.16548830
    49  H          0.06170000       0.47160000       0.88600000
    50  H          0.93830000       0.52840000       0.11400000
    51  C          0.51359190       0.23556170       0.94754160
    52  C          0.48640810       0.76443830       0.05245840
    53  C          0.48582000       0.31967180       0.38077160
    54  C          0.51418000       0.68032820       0.61922840
    55  H          0.43200000       0.39110000       0.36610000
    56  H          0.56800000       0.60890000       0.63390000
    57  C          0.39562000       0.28809170       0.13167170
    58  C          0.60438000       0.71190830       0.86832830
    59  H          0.35870000       0.34570000       0.18460000
    60  H          0.64130000       0.65430000       0.81540000
    61  C          0.24232000       0.31911180       0.67733170
    62  C          0.75768000       0.68088820       0.32266830
    63  H          0.23630000       0.27780000       0.62020000
    64  H          0.76370000       0.72220000       0.37980000
    65  C          0.36432000       0.32480180       0.68412160
    66  C          0.63568000       0.67519820       0.31587840
    67  H          0.44150000       0.28760000       0.63260000
    68  H          0.55850000       0.71240000       0.36740000
    69  C          0.87968000       0.42312000       0.83332000
    70  C          0.12032000       0.57688000       0.16668000
    71  H          0.79660000       0.41450000       0.82380000
    72  H          0.20340000       0.58550000       0.17620000
    73  H          0.88970000       0.38880000       0.90320000
    74  H          0.11030000       0.61120000       0.09680000
    75  H          0.87970000       0.50490000       0.83110000
    76  H          0.12030000       0.49510000       0.16890000
    77  C          0.26022000       0.44082180       0.84228170
    78  C          0.73978000       0.55917820       0.15771830
    79  H          0.26640000       0.48310000       0.89860000
    80  H          0.73360000       0.51690000       0.10140000
    81  C          0.99378000       0.36226190       0.74221180
    82  C          0.00622000       0.63773810       0.25778820
    83  C          0.97618000       0.41562000       0.63274190
    84  C          0.02382000       0.58438000       0.36725810
    85  H          0.89120000       0.40930000       0.62550000
    86  H          0.10880000       0.59070000       0.37450000
    87  H          0.97930000       0.49690000       0.62900000
    88  H          0.02070000       0.50310000       0.37100000
    89  H          0.04680000       0.37480000       0.57390000
    90  H          0.95320000       0.62520000       0.42610000
    91  C          0.61022000       0.31446180       0.39245170
    92  C          0.38978000       0.68553820       0.60754830
    93  H          0.64060000       0.38320000       0.38610000
    94  H          0.35940000       0.61680000       0.61390000
    95  C          0.83092000       0.19931190       0.42188180
    96  C          0.16908000       0.80068810       0.57811820
    97  C          0.92692000       0.11732000       0.33382000
    98  C          0.07308000       0.88268000       0.66618000
    99  H          0.90320000       0.04260000       0.34360000
   100  H          0.09680000       0.95740000       0.65640000
   101  H          0.92200000       0.15000000       0.26220000
   102  H          0.07800000       0.85000000       0.73780000
   103  H          0.01660000       0.10720000       0.33960000
   104  H          0.98340000       0.89280000       0.66040000
   105  C          0.69082000       0.21017180       0.41328160
   106  C          0.30918000       0.78982820       0.58671840
   107  C          0.12662000       0.37270180       0.75260170
   108  C          0.87338000       0.62729820       0.24739830
   109  C          0.99098000       0.23422000       0.74612000
   110  C          0.00902000       0.76578000       0.25388000
   111  H          0.90600000       0.22710000       0.73950000
   112  H          0.09400000       0.77290000       0.26050000
   113  H          0.06130000       0.19490000       0.68630000
   114  H          0.93870000       0.80510000       0.31370000
   115  H          0.00380000       0.19910000       0.81510000
   116  H         -0.00380000       0.80090000       0.18490000
   117  C          0.86952000       0.31522000       0.40512000
   118  C          0.13048000       0.68478000       0.59488000
   119  H          0.86260000       0.34810000       0.33400000
   120  H          0.13740000       0.65190000       0.66600000
   121  H          0.81060000       0.36750000       0.46170000
   122  H          0.18940000       0.63250000       0.53830000
   123  H          0.96010000       0.30410000       0.40880000
   124  H          0.03990000       0.69590000       0.59120000
   125  C          0.84222000       0.14872000       0.53361180
   126  C          0.15778000       0.85128000       0.46638820
   127  H          0.81760000       0.07430000       0.54510000
   128  H          0.18240000       0.92570000       0.45490000
   129  H          0.93290000       0.13810000       0.53700000
   130  H          0.06710000       0.86190000       0.46300000
   131  H          0.78340000       0.20140000       0.58990000
   132  H          0.21660000       0.79860000       0.41010000
   133  N          0.93603000       0.70988000       0.89402000
   134  N          0.06397000       0.29012000       0.10598000
   135  C          0.76962000       0.89448000       0.10351190
   136  C          0.23038000       0.10552000       0.89648810
   137  H          0.75410000       0.82290000       0.13540000
   138  H          0.24590000       0.17710000       0.86460000
   139  C          0.84142000       0.90138000      -0.00382810
   140  C          0.15858000       0.09862000       0.00382810
   141  C          0.89452000       0.79578000       0.93732000
   142  C          0.10548000       0.20422000       0.06268000
   143  C          0.81212000       0.10462000       0.00972000
   144  C          0.18788000       0.89538000      -0.00972000
   145  H          0.82550000       0.17680000       0.97790000
   146  H          0.17450000       0.82320000       0.02210000
   147  C          0.86272000       0.00602000       0.94832000
   148  C          0.13728000      -0.00602000       0.05168000
   149  H          0.91110000       0.01030000       0.87460000
   150  H          0.08890000      -0.01030000       0.12540000
   151  C          0.72133000      -0.00713000       0.16312000
   152  C          0.27867000       0.00713000       0.83688000
   153  H          0.67290000      -0.01130000       0.23680000
   154  H          0.32710000       0.01130000       0.76320000
   155  C          0.74232000       0.09733000       0.11702000
   156  C          0.25768000       0.90267000       0.88298000
   157  H          0.70870000       0.16450000       0.15910000
   158  H          0.29130000       0.83550000       0.84090000
