data_FEKWEA
_symmetry_space_group_name_H-M    'P1'
_symmetry_Int_Tables_number       1
loop_
_symmetry_equiv_pos_site_id
_symmetry_equiv_pos_as_xyz
1 x,y,z
_cell_length_a                   7.124298
_cell_length_b                   9.4048411
_cell_length_c                   14.2798816
_cell_angle_alpha                83.70145
_cell_angle_beta                 80.09165
_cell_angle_gamma                67.83884
loop_
_atom_site_label
_atom_site_type_symbol
_atom_site_fract_x
_atom_site_fract_y
_atom_site_fract_z
     1  C          0.52303000       0.71322000       0.62906130
     2  C          0.47697000       0.28678000       0.37093870
     3  C          0.38783000       0.86902000       0.63606130
     4  C          0.61217000       0.13098000       0.36393870
     5  C          0.32683000       0.93692000       0.72421130
     6  C          0.67317000       0.06308000       0.27578870
     7  C          0.39173000       0.85522000       0.80586130
     8  C          0.60827000       0.14478000       0.19413870
     9  H          0.34800000       0.90290000       0.86520000
    10  H          0.65200000       0.09710000       0.13480000
    11  C          0.52173000       0.70242000       0.80102130
    12  C          0.47827000       0.29758000       0.19897870
    13  C          0.58453000       0.63142000       0.71466130
    14  C          0.41547000       0.36858000       0.28533870
    15  C          0.58633000       0.65502000       0.53009130
    16  C          0.41367000       0.34498000       0.46990870
    17  C          0.81613000       0.44932000       0.42423130
    18  C          0.18387000       0.55068000       0.57576870
    19  C          0.95333000       0.29632000       0.43085130
    20  C          0.04667000       0.70368000       0.56914870
    21  C          0.03203000       0.21592000       0.34827130
    22  C          0.96797000       0.78408000       0.65172870
    23  C          0.98563000       0.28352000       0.25973130
    24  C          0.01437000       0.71648000       0.74026870
    25  H          0.04090000       0.22690000       0.20380000
    26  H          0.95910000       0.77310000       0.79620000
    27  C          0.85603000       0.43592000       0.25538130
    28  C          0.14397000       0.56408000       0.74461870
    29  C          0.76823000       0.52022000       0.33614130
    30  C          0.23177000       0.47978000       0.66385870
    31  H          0.67720000       0.62410000       0.33130000
    32  H          0.32280000       0.37590000       0.66870000
    33  O          0.31502000       0.95706160       0.56027100
    34  O          0.68498000       0.04293840       0.43972900
    35  H          0.36450000       0.89340000       0.51630000
    36  H          0.63550000       0.10660000       0.48370000
    37  O          0.49702000       0.73476160       0.46413100
    38  O          0.50298000       0.26523840       0.53586900
    39  O         -0.00358000       0.24008160       0.51951900
    40  O          0.00358000       0.75991840       0.48048100
    41  H          0.08150000       0.15440000       0.52120000
    42  H          0.91850000       0.84560000       0.47880000
    43  N          0.73952000       0.51966180       0.51270110
    44  N          0.26048000       0.48033820       0.48729890
    45  H          0.79040000       0.47030000       0.56120000
    46  H          0.20960000       0.52970000       0.43880000
    47  Cl         0.17067800       0.12793500       0.72880300
    48  Cl         0.82932200       0.87206500       0.27119700
    49  Cl         0.60222800       0.60473600       0.90548300
    50  Cl         0.39777200       0.39526400       0.09451700
    51  Cl         0.73444700       0.43706500       0.71895300
    52  Cl         0.26555300       0.56293500       0.28104700
    53  Cl         0.19104700       0.02420500       0.35651300
    54  Cl         0.80895300       0.97579500       0.64348700
    55  Cl         0.80180800       0.52492600       0.14470300
    56  Cl         0.19819200       0.47507400       0.85529700
    57  C          0.64936000       0.10133000       0.89580170
    58  C          0.35064000       0.89867000       0.10419830
    59  H          0.52820000       0.16730000       0.93580000
    60  H          0.47180000       0.83270000       0.06420000
    61  H          0.62490000       0.01170000       0.87990000
    62  H          0.37510000      -0.01170000       0.12010000
    63  H          0.67700000       0.15920000       0.83720000
    64  H          0.32300000       0.84080000       0.16280000
    65  C          0.83147000       0.04863000       0.94909140
    66  C          0.16853000       0.95137000       0.05090860
    67  C          0.91337000       0.89753000       0.98487150
    68  C          0.08663000       0.10247000       0.01512850
    69  H          0.85470000       0.82590000       0.97490000
    70  H          0.14530000       0.17410000       0.02510000
    71  C          0.92087000       0.15032000       0.96518150
    72  C          0.07913000       0.84968000       0.03481850
    73  H          0.86770000       0.25410000       0.94160000
    74  H          0.13230000       0.74590000       0.05840000
