data_FEKWAW
_symmetry_space_group_name_H-M    'P1'
_symmetry_Int_Tables_number       1
loop_
_symmetry_equiv_pos_site_id
_symmetry_equiv_pos_as_xyz
1 x,y,z
_cell_length_a                   7.168108
_cell_length_b                   9.288211
_cell_length_c                   13.4213215
_cell_angle_alpha                88.31245
_cell_angle_beta                 85.64815
_cell_angle_gamma                69.75085
loop_
_atom_site_label
_atom_site_type_symbol
_atom_site_fract_x
_atom_site_fract_y
_atom_site_fract_z
     1  C          0.70283000       0.69433000       0.62719160
     2  C          0.29717000       0.30567000       0.37280840
     3  C          0.67283000       0.85293000       0.63386170
     4  C          0.32717000       0.14707000       0.36613830
     5  C          0.60453000       0.92872000       0.72536170
     6  C          0.39547000       0.07128000       0.27463830
     7  C          0.57443000       0.85013000       0.81021170
     8  C          0.42557000       0.14987000       0.18978830
     9  H          0.52570000       0.90320000       0.87150000
    10  H          0.47430000       0.09680000       0.12850000
    11  C          0.61553000       0.69263000       0.80567170
    12  C          0.38447000       0.30737000       0.19432830
    13  C          0.67863000       0.61562000       0.71628170
    14  C          0.32137000       0.38438000       0.28371830
    15  C          0.75693000       0.62853000       0.52377160
    16  C          0.24307000       0.37147000       0.47622840
    17  C          0.77203000       0.42202000       0.41010160
    18  C          0.22797000       0.57798000       0.58989840
    19  C          0.78883000       0.26623000       0.41558160
    20  C          0.21117000       0.73377000       0.58441840
    21  C          0.84383000       0.17933000       0.32880170
    22  C          0.15617000       0.82067000       0.67119830
    23  C          0.87403000       0.24343000       0.23666170
    24  C          0.12597000       0.75657000       0.76333830
    25  H          0.91090000       0.18280000       0.17780000
    26  H          0.08910000       0.81720000       0.82220000
    27  C          0.84873000       0.39833000       0.23332160
    28  C          0.15127000       0.60167000       0.76667840
    29  C          0.79903000       0.48883000       0.31852170
    30  C          0.20097000       0.51117000       0.68147830
    31  H          0.78370000       0.59450000       0.31430000
    32  H          0.21630000       0.40550000       0.68570000
    33  N          0.72363000       0.49992000       0.50233150
    34  N          0.27637000       0.50008000       0.49766850
    35  H          0.69450000       0.45740000       0.54930000
    36  H          0.30550000       0.54260000       0.45070000
    37  O          0.70523000       0.93572000       0.55533130
    38  O          0.29477000       0.06428000       0.44466870
    39  H          0.75360000       0.86750000       0.51230000
    40  H          0.24640000       0.13250000       0.48770000
    41  O          0.82343000       0.69812000       0.45756130
    42  O          0.17657000       0.30188000       0.54243870
    43  O          0.75103000       0.21532000       0.50785130
    44  O          0.24897000       0.78468000       0.49214870
    45  H          0.75760000       0.12250000       0.50130000
    46  H          0.24240000       0.87750000       0.49870000
    47  Cl         0.55481900       0.12371600       0.73066500
    48  Cl         0.44518100       0.87628400       0.26933500
    49  Cl         0.58544900       0.59906700       0.91518400
    50  Cl         0.41455100       0.40093300       0.08481600
    51  Cl         0.73715900       0.41827600       0.71881400
    52  Cl         0.26284100       0.58172400       0.28118600
    53  Cl         0.87882900      -0.01455600       0.33607400
    54  Cl         0.12117100       0.01455600       0.66392600
    55  Cl         0.88112100       0.48339700       0.11972400
    56  Cl         0.11887900       0.51660300       0.88027600
    57  C          0.06845000       0.86027000       0.04942000
    58  C          0.93155000       0.13973000       0.95058000
    59  H          0.11520000       0.76460000       0.08320000
    60  H          0.88480000       0.23540000       0.91680000
    61  C          0.87405000       0.91636000       0.02032000
    62  C          0.12595000       0.08364000       0.97968000
    63  H          0.78780000       0.85920000       0.03430000
    64  H          0.21220000       0.14080000       0.96570000
    65  C          0.80635000       0.05654000       0.97078000
    66  C          0.19365000       0.94346000       0.02922000
    67  H          0.67360000       0.09510000       0.95080000
    68  H          0.32640000       0.90490000       0.04920000
