data_FELWAX
_symmetry_space_group_name_H-M    'P1'
_symmetry_Int_Tables_number       1
loop_
_symmetry_equiv_pos_site_id
_symmetry_equiv_pos_as_xyz
1 x,y,z
_cell_length_a                   5.18533
_cell_length_b                   8.57004
_cell_length_c                   10.81326
_cell_angle_alpha                87.0614
_cell_angle_beta                 81.8314
_cell_angle_gamma                87.0454
loop_
_atom_site_label
_atom_site_type_symbol
_atom_site_fract_x
_atom_site_fract_y
_atom_site_fract_z
     1  S          0.19735700       0.26824400       0.37105300
     2  S          0.80264300       0.73175600       0.62894700
     3  O          0.90498000       0.26822140       0.37529100
     4  O          0.09502000       0.73177860       0.62470900
     5  C          0.31293000       0.06995190       0.37212160
     6  C          0.68707000       0.93004810       0.62787840
     7  H          0.23820000       0.01717000       0.44731000
     8  H          0.76180000       0.98283000       0.55269000
     9  H          0.49820000       0.06502000       0.36771200
    10  H          0.50180000       0.93498000       0.63228800
    11  H          0.26520000       0.02117000       0.30201000
    12  H          0.73480000       0.97883000       0.69799000
    13  C          0.25503000       0.31112000       0.52360170
    14  C          0.74497000       0.68888000       0.47639830
    15  H          0.20520000       0.41901400       0.53895000
    16  H          0.79480000       0.58098600       0.46105000
    17  H          0.43820000       0.29301500       0.53014000
    18  H          0.56180000       0.70698500       0.46986000
    19  H          0.15420000       0.24461300       0.58458000
    20  H          0.84580000       0.75538700       0.41542000
    21  O          0.24772160       0.03911100       0.90166800
    22  O          0.75227840       0.96088900       0.09833200
    23  O          0.79798000       0.42567110       0.87325100
    24  O          0.20202000       0.57432890       0.12674900
    25  N          0.92388000       0.17698130       0.82121110
    26  N          0.07612000       0.82301870       0.17878890
    27  N          0.16412000       0.27336120       0.98256100
    28  N          0.83588000       0.72663880       0.01743900
    29  N          0.77528000       0.30783130       0.81381100
    30  N          0.22472000       0.69216870       0.18618900
    31  N          0.36682000       0.19521120       0.03812100
    32  N          0.63318000       0.80478880       0.96187900
    33  O          0.60458000       0.30539130       0.74292100
    34  O          0.39542000       0.69460870       0.25707900
    35  C          0.10022000       0.17774140       0.90233120
    36  C          0.89978000       0.82225860       0.09766880
    37  C          0.40642000       0.06167140      -0.01233880
    38  C          0.59358000       0.93832860       0.01233880
    39  N          0.70992000       0.40174150       0.16273120
    40  N          0.29008000       0.59825850       0.83726880
    41  H          0.60940000       0.33920000       0.13220000
    42  H          0.39060000       0.66080000       0.86780000
    43  H          0.62140000       0.48930000       0.18420000
    44  H          0.37860000       0.51070000       0.81580000
    45  H          0.78140000       0.35520000       0.22920000
    46  H          0.21860000       0.64480000       0.77080000
    47  H          0.83840000       0.42720000       0.10420000
    48  H          0.16160000       0.57280000       0.89580000
