data_FEMNIX02
_symmetry_space_group_name_H-M    'P1'
_symmetry_Int_Tables_number       1
loop_
_symmetry_equiv_pos_site_id
_symmetry_equiv_pos_as_xyz
1 x,y,z
_cell_length_a                   10.806619
_cell_length_b                   10.326517
_cell_length_c                   8.404615
_cell_angle_alpha                90.0
_cell_angle_beta                 91.3011
_cell_angle_gamma                90.0
loop_
_atom_site_label
_atom_site_type_symbol
_atom_site_fract_x
_atom_site_fract_y
_atom_site_fract_z
     1  C          0.17941100       0.06921600       0.54520000
     2  C          0.82058900       0.56921600       0.95480000
     3  C          0.82058900       0.93078400       0.45480000
     4  C          0.17941100       0.43078400       0.04520000
     5  H          0.09990000       0.04290000       0.58820000
     6  H          0.90010000       0.54290000       0.91180000
     7  H          0.90010000       0.95710000       0.41180000
     8  H          0.09990000       0.45710000       0.08820000
     9  H          0.16410000       0.10580000       0.43840000
    10  H          0.83590000       0.60580000       0.06160000
    11  H          0.83590000       0.89420000       0.56160000
    12  H          0.16410000       0.39420000       0.93840000
    13  C          0.23971200       0.16751300       0.65011700
    14  C          0.76028800       0.66751300       0.84988300
    15  C          0.76028800       0.83248700       0.34988300
    16  C          0.23971200       0.33248700       0.15011700
    17  H          0.18530000       0.24290000       0.65960000
    18  H          0.81470000       0.74290000       0.84040000
    19  H          0.81470000       0.75710000       0.34040000
    20  H          0.18530000       0.25710000       0.15960000
    21  H          0.25320000       0.13080000       0.75660000
    22  H          0.74680000       0.63080000       0.74340000
    23  H          0.74680000       0.86920000       0.24340000
    24  H          0.25320000       0.36920000       0.25660000
    25  C          0.41341600       0.30871300       0.67181800
    26  C          0.58658400       0.80871300       0.82818200
    27  C          0.58658400       0.69128700       0.32818200
    28  C          0.41341600       0.19128700       0.17181800
    29  H          0.42460000       0.28390000       0.78380000
    30  H          0.57540000       0.78390000       0.71620000
    31  H          0.57540000       0.71610000       0.21620000
    32  H          0.42460000       0.21610000       0.28380000
    33  H          0.36080000       0.38590000       0.66690000
    34  H          0.63920000       0.88590000       0.83310000
    35  H          0.63920000       0.61410000       0.33310000
    36  H          0.36080000       0.11410000       0.16690000
    37  C          0.53191400       0.33711100       0.60481800
    38  C          0.46808600       0.83711100       0.89518200
    39  C          0.46808600       0.66288900       0.39518200
    40  C          0.53191400       0.16288900       0.10481800
    41  H          0.57170000       0.40880000       0.66250000
    42  H          0.42830000       0.90880000       0.83750000
    43  H          0.42830000       0.59120000       0.33750000
    44  H          0.57170000       0.09120000       0.16250000
    45  H          0.52140000       0.36210000       0.49280000
    46  H          0.47860000       0.86210000       0.00720000
    47  H          0.47860000       0.63790000       0.50720000
    48  H          0.52140000       0.13790000      -0.00720000
    49  C          0.72471400       0.24981800       0.56230000
    50  C          0.27528600       0.74981800       0.93770000
    51  C          0.27528600       0.75018200       0.43770000
    52  C          0.72471400       0.25018200       0.06230000
    53  H          0.76420000       0.31730000       0.62700000
    54  H          0.23580000       0.81730000       0.87300000
    55  H          0.23580000       0.68270000       0.37300000
    56  H          0.76420000       0.18270000       0.12700000
    57  H          0.71840000       0.28080000       0.45150000
    58  H          0.28160000       0.78080000       0.04850000
    59  H          0.28160000       0.71920000       0.54850000
    60  H          0.71840000       0.21920000       0.95150000
    61  C          0.79651400       0.13281900       0.57030000
    62  C          0.20348600       0.63281900       0.92970000
    63  C          0.20348600       0.86718100       0.42970000
    64  C          0.79651400       0.36718100       0.07030000
    65  H          0.79870000       0.10010000       0.67900000
    66  H          0.20130000       0.60010000       0.82100000
    67  H          0.20130000       0.89990000       0.32100000
    68  H          0.79870000       0.39990000       0.17900000
    69  H          0.88160000       0.15090000       0.53860000
    70  H          0.11840000       0.65090000       0.96140000
    71  H          0.11840000       0.84910000       0.46140000
    72  H          0.88160000       0.34910000       0.03860000
    73  O          0.25708000       0.96379000       0.53521300
    74  O          0.74292000       0.46379000       0.96478700
    75  O          0.74292000       0.03621000       0.46478700
    76  O          0.25708000       0.53621000       0.03521300
    77  O          0.35618000       0.20739000       0.58691100
    78  O          0.64382000       0.70739000       0.91308900
    79  O          0.64382000       0.79261000       0.41308900
    80  O          0.35618000       0.29261000       0.08691100
    81  O          0.60748000       0.22178000       0.61801200
    82  O          0.39252000       0.72178000       0.88198800
    83  O          0.39252000       0.77822000       0.38198800
    84  O          0.60748000       0.27822000       0.11801200
    85  F          0.85437000       0.51308000       0.48341300
    86  F          0.14563000       0.01308000       0.01658700
    87  F          0.14563000       0.48692000       0.51658700
    88  F          0.85437000      -0.01308000      -0.01658700
    89  F          0.00657000       0.63427000       0.59541100
    90  F         -0.00657000       0.13427000       0.90458900
    91  F         -0.00657000       0.36573000       0.40458900
    92  F          0.00657000       0.86573000       0.09541100
    93  F          0.98508000       0.42297000       0.65921000
    94  F          0.01492000       0.92297000       0.84079000
    95  F          0.01492000       0.57703000       0.34079000
    96  F          0.98508000       0.07703000       0.15921000
    97  P         -0.00000000       0.50000000       0.50000000
    98  P         -0.00000000      -0.00000000      -0.00000000
    99  O          0.50000000      -0.00000000       0.50000000
   100  O          0.50000000       0.50000000      -0.00000000
