data_FEMNIX
_symmetry_space_group_name_H-M    'P1'
_symmetry_Int_Tables_number       1
loop_
_symmetry_equiv_pos_site_id
_symmetry_equiv_pos_as_xyz
1 x,y,z
_cell_length_a                   8.76698
_cell_length_b                   10.03311
_cell_length_c                   10.87641
_cell_angle_alpha                90.0
_cell_angle_beta                 90.0
_cell_angle_gamma                90.0
loop_
_atom_site_label
_atom_site_type_symbol
_atom_site_fract_x
_atom_site_fract_y
_atom_site_fract_z
     1  C          0.06091000       0.44848000       0.18004000
     2  C          0.93909000       0.55152000       0.18004000
     3  C          0.56091000       0.05152000       0.81996000
     4  C          0.43909000       0.94848000       0.81996000
     5  C          0.93909000       0.55152000       0.81996000
     6  C          0.06091000       0.44848000       0.81996000
     7  C          0.43909000       0.94848000       0.18004000
     8  C          0.56091000       0.05152000       0.18004000
     9  H          0.04970000       0.39140000       0.10850000
    10  H          0.95030000       0.60860000       0.10850000
    11  H          0.54970000       0.10860000       0.89150000
    12  H          0.45030000       0.89140000       0.89150000
    13  H          0.95030000       0.60860000       0.89150000
    14  H          0.04970000       0.39140000       0.89150000
    15  H          0.45030000       0.89140000       0.10850000
    16  H          0.54970000       0.10860000       0.10850000
    17  H          0.16020000       0.49080000       0.17590000
    18  H          0.83980000       0.50920000       0.17590000
    19  H          0.66020000       0.00920000       0.82410000
    20  H          0.33980000      -0.00920000       0.82410000
    21  H          0.83980000       0.50920000       0.82410000
    22  H          0.16020000       0.49080000       0.82410000
    23  H          0.33980000      -0.00920000       0.17590000
    24  H          0.66020000       0.00920000       0.17590000
    25  C          0.16097000       0.27459000       0.28286000
    26  C          0.83903000       0.72541000       0.28286000
    27  C          0.66097000       0.22541000       0.71714000
    28  C          0.33903000       0.77459000       0.71714000
    29  C          0.83903000       0.72541000       0.71714000
    30  C          0.16097000       0.27459000       0.71714000
    31  C          0.33903000       0.77459000       0.28286000
    32  C          0.66097000       0.22541000       0.28286000
    33  H          0.26150000       0.31460000       0.28380000
    34  H          0.73850000       0.68540000       0.28380000
    35  H          0.76150000       0.18540000       0.71620000
    36  H          0.23850000       0.81460000       0.71620000
    37  H          0.73850000       0.68540000       0.71620000
    38  H          0.26150000       0.31460000       0.71620000
    39  H          0.23850000       0.81460000       0.28380000
    40  H          0.76150000       0.18540000       0.28380000
    41  H          0.15040000       0.22250000       0.20810000
    42  H          0.84960000       0.77750000       0.20810000
    43  H          0.65040000       0.27750000       0.79190000
    44  H          0.34960000       0.72250000       0.79190000
    45  H          0.84960000       0.77750000       0.79190000
    46  H          0.15040000       0.22250000       0.79190000
    47  H          0.34960000       0.72250000       0.20810000
    48  H          0.65040000       0.27750000       0.20810000
    49  C          0.13829000       0.18407000       0.39829000
    50  C          0.86171000       0.81593000       0.39829000
    51  C          0.63829000       0.31593000       0.60171000
    52  C          0.36171000       0.68407000       0.60171000
    53  C          0.86171000       0.81593000       0.60171000
    54  C          0.13829000       0.18407000       0.60171000
    55  C          0.36171000       0.68407000       0.39829000
    56  C          0.63829000       0.31593000       0.39829000
    57  H          0.03690000       0.14510000       0.39740000
    58  H          0.96310000       0.85490000       0.39740000
    59  H          0.53690000       0.35490000       0.60260000
    60  H          0.46310000       0.64510000       0.60260000
    61  H          0.96310000       0.85490000       0.60260000
    62  H          0.03690000       0.14510000       0.60260000
    63  H          0.46310000       0.64510000       0.39740000
    64  H          0.53690000       0.35490000       0.39740000
    65  H          0.21250000       0.11240000       0.39810000
    66  H          0.78750000       0.88760000       0.39810000
    67  H          0.71250000       0.38760000       0.60190000
    68  H          0.28750000       0.61240000       0.60190000
    69  H          0.78750000       0.88760000       0.60190000
    70  H          0.21250000       0.11240000       0.60190000
    71  H          0.28750000       0.61240000       0.39810000
    72  H          0.71250000       0.38760000       0.39810000
    73  O          0.05005000       0.37155000       0.28823000
    74  O          0.94995000       0.62845000       0.28823000
    75  O          0.55005000       0.12845000       0.71177000
    76  O          0.44995000       0.87155000       0.71177000
    77  O          0.94995000       0.62845000       0.71177000
    78  O          0.05005000       0.37155000       0.71177000
    79  O          0.44995000       0.87155000       0.28823000
    80  O          0.55005000       0.12845000       0.28823000
    81  O          0.15637000       0.26137000       0.50000000
    82  O          0.84363000       0.73863000       0.50000000
    83  O          0.65637000       0.23863000       0.50000000
    84  O          0.34363000       0.76137000       0.50000000
    85  F          0.50000000       0.50000000       0.14534000
    86  F          0.00000000       0.00000000       0.85466000
    87  F          0.50000000       0.50000000       0.85466000
    88  F          0.00000000      -0.00000000       0.14534000
    89  F          0.40996000       0.36514000       0.00000000
    90  F          0.59004000       0.63486000       0.00000000
    91  F          0.90996000       0.13486000       0.00000000
    92  F          0.09004000       0.86514000       0.00000000
    93  F          0.34514000       0.57975000       0.00000000
    94  F          0.65486000       0.42025000       0.00000000
    95  F          0.84514000       0.92025000       0.00000000
    96  F          0.15486000       0.07975000       0.00000000
    97  P          0.50000000       0.50000000       0.00000000
    98  P          0.00000000       0.00000000       0.00000000
    99  O         -0.00000000       0.50000000       0.50000000
   100  O          0.50000000       0.00000000       0.50000000
