data_FEPGAK
_symmetry_space_group_name_H-M    'P1'
_symmetry_Int_Tables_number       1
loop_
_symmetry_equiv_pos_site_id
_symmetry_equiv_pos_as_xyz
1 x,y,z
_cell_length_a                   18.17544
_cell_length_b                   6.9125613
_cell_length_c                   25.75345
_cell_angle_alpha                90.0
_cell_angle_beta                 110.55509
_cell_angle_gamma                90.0
loop_
_atom_site_label
_atom_site_type_symbol
_atom_site_fract_x
_atom_site_fract_y
_atom_site_fract_z
     1  Cl         0.59193500       0.57840150       0.95143400
     2  Cl         0.90806500       0.07840150       0.54856600
     3  Cl         0.40806500       0.42159850       0.04856600
     4  Cl         0.09193500       0.92159850       0.45143400
     5  Cl         0.91569500       0.60341150       0.07657400
     6  Cl         0.58430500       0.10341150       0.42342600
     7  Cl         0.08430500       0.39658850       0.92342600
     8  Cl         0.41569500       0.89658850       0.57657400
     9  Cl         0.52873600       0.36602150       0.76097500
    10  Cl         0.97126400       0.86602150       0.73902500
    11  Cl         0.47126400       0.63397850       0.23902500
    12  Cl         0.02873600       0.13397850       0.26097500
    13  O          0.56436170       0.20215000       0.87916120
    14  O          0.93563830       0.70215000       0.62083880
    15  O          0.43563830       0.79785000       0.12083880
    16  O          0.06436170       0.29785000       0.37916120
    17  O          0.49628170       0.86104000       0.86097120
    18  O          0.00371830       0.36104000       0.63902880
    19  O          0.50371830       0.13896000       0.13902880
    20  O         -0.00371830       0.63896000       0.36097120
    21  O          0.46301150       0.75554000       0.76380120
    22  O          0.03698850       0.25554000       0.73619880
    23  O          0.53698850       0.24446000       0.23619880
    24  O          0.96301150       0.74446000       0.26380120
    25  O         -0.00032840       0.47544000       0.80032110
    26  O          0.50032840       0.97544000       0.69967890
    27  O          0.00032840       0.52456000       0.19967890
    28  O          0.49967160       0.02456000       0.30032110
    29  N          0.84942180       0.43215000       0.96084130
    30  N          0.65057820       0.93215000       0.53915870
    31  N          0.15057820       0.56785000       0.03915870
    32  N          0.34942180       0.06785000       0.46084130
    33  C          0.89753000       0.39766000       0.93256180
    34  C          0.60247000       0.89766000       0.56743820
    35  C          0.10247000       0.60234000       0.06743820
    36  C          0.39753000       0.10234000       0.43256180
    37  C          0.86783000       0.38096000       0.87692180
    38  C          0.63217000       0.88096000       0.62307820
    39  C          0.13217000       0.61904000       0.12307820
    40  C          0.36783000       0.11904000       0.37692180
    41  C          0.78703000       0.39946000       0.84793160
    42  C          0.71297000       0.89946000       0.65206840
    43  C          0.21297000       0.60054000       0.15206840
    44  C          0.28703000       0.10054000       0.34793160
    45  C          0.74033000       0.42886000       0.87972000
    46  C          0.75967000       0.92886000       0.62028000
    47  C          0.25967000       0.57114000       0.12028000
    48  C          0.24033000       0.07114000       0.37972000
    49  C          0.77183000       0.44616000       0.93526190
    50  C          0.72817000       0.94616000       0.56473810
    51  C          0.22817000       0.55384000       0.06473810
    52  C          0.27183000       0.05384000       0.43526190
    53  C          0.74783000       0.39437000       0.78773000
    54  C          0.75217000       0.89437000       0.71227000
    55  C          0.25217000       0.60563000       0.21227000
    56  C          0.24783000       0.10563000       0.28773000
    57  C          0.78343000       0.39747000       0.75252000
    58  C          0.71657000       0.89747000       0.74748000
    59  C          0.21657000       0.60253000       0.24748000
    60  C          0.28343000       0.10253000       0.25252000
    61  C          0.74373000       0.40176000       0.69046180
    62  C          0.75627000       0.90176000       0.80953820
    63  C          0.25627000       0.59824000       0.30953820
    64  C          0.24373000       0.09824000       0.19046180
    65  C          0.79173000       0.41916000       0.65999190
    66  C          0.70827000       0.91916000       0.84000810
    67  C          0.20827000       0.58084000       0.34000810
    68  C          0.29173000       0.08084000       0.15999190
    69  C          0.76033000       0.42097000       0.60292000
    70  C          0.73967000       0.92097000       0.89708000
    71  C          0.23967000       0.57903000       0.39708000
    72  C          0.26033000       0.07903000       0.10292000
    73  C          0.68024000       0.40766000       0.57662190
    74  C          0.81976000       0.90766000       0.92337810
    75  C          0.31976000       0.59234000       0.42337810
    76  C          0.18024000       0.09234000       0.07662190
    77  C          0.62903000       0.39166000       0.60562000
    78  C          0.87097000       0.89166000       0.89438000
    79  C          0.37097000       0.60834000       0.39438000
    80  C          0.12903000       0.10834000       0.10562000
    81  C          0.66343000       0.38816000       0.66418190
    82  C          0.83657000       0.88816000       0.83581810
    83  C          0.33657000       0.61184000       0.33581810
    84  C          0.16343000       0.11184000       0.16418190
    85  C          0.54343000       0.38037000       0.57783000
    86  C          0.95657000       0.88037000       0.92217000
    87  C          0.45657000       0.61963000       0.42217000
    88  C          0.04343000       0.11963000       0.07783000
    89  H          0.86950000       0.44600000      -0.00290000
    90  H          0.63050000       0.94600000       0.50290000
    91  H          0.13050000       0.55400000       0.00290000
    92  H          0.36950000       0.05400000       0.49710000
    93  H          0.95250000       0.38480000       0.95170000
    94  H          0.54750000       0.88480000       0.54830000
    95  H          0.04750000       0.61520000       0.04830000
    96  H          0.45250000       0.11520000       0.45170000
    97  H          0.90220000       0.35640000       0.85710000
    98  H          0.59780000       0.85640000       0.64290000
    99  H          0.09780000       0.64360000       0.14290000
   100  H          0.40220000       0.14360000       0.35710000
   101  H          0.68500000       0.43700000       0.86190000
   102  H          0.81500000       0.93700000       0.63810000
   103  H          0.31500000       0.56300000       0.13810000
   104  H          0.18500000       0.06300000       0.36190000
   105  H          0.73880000       0.46810000       0.95620000
   106  H          0.76120000       0.96810000       0.54380000
   107  H          0.26120000       0.53190000       0.04380000
   108  H          0.23880000       0.03190000       0.45620000
   109  H          0.69210000       0.38820000       0.77350000
   110  H          0.80790000       0.88820000       0.72650000
   111  H          0.30790000       0.61180000       0.22650000
   112  H          0.19210000       0.11180000       0.27350000
   113  H          0.83920000       0.39690000       0.76680000
   114  H          0.66080000       0.89690000       0.73320000
   115  H          0.16080000       0.60310000       0.23320000
   116  H          0.33920000       0.10310000       0.26680000
   117  H          0.84700000       0.43010000       0.67830000
   118  H          0.65300000       0.93010000       0.82170000
   119  H          0.15300000       0.56990000       0.32170000
   120  H          0.34700000       0.06990000       0.17830000
   121  H          0.79380000       0.43130000       0.58180000
   122  H          0.70620000       0.93130000       0.91820000
   123  H          0.20620000       0.56870000       0.41820000
   124  H          0.29380000       0.06870000       0.08180000
   125  H          0.65920000       0.40940000       0.53720000
   126  H          0.84080000       0.90940000       0.96280000
   127  H          0.34080000       0.59060000       0.46280000
   128  H          0.15920000       0.09060000       0.03720000
   129  H          0.63060000       0.37610000       0.68570000
   130  H          0.86940000       0.87610000       0.81430000
   131  H          0.36940000       0.62390000       0.31430000
   132  H          0.13060000       0.12390000       0.18570000
   133  H          0.53090000       0.36230000       0.53790000
   134  H          0.96910000       0.86230000       0.96210000
   135  H          0.46910000       0.63770000       0.46210000
   136  H          0.03090000       0.13770000       0.03790000
   137  H          0.51920000       0.50030000       0.58430000
   138  H          0.98080000       0.00030000       0.91570000
   139  H          0.48080000       0.49970000       0.41570000
   140  H          0.01920000      -0.00030000       0.08430000
   141  H          0.52290000       0.27070000       0.59270000
   142  H          0.97710000       0.77070000       0.90730000
   143  H          0.47710000       0.72930000       0.40730000
   144  H          0.02290000       0.22930000       0.09270000
   145  N          0.33507190       0.38955000       0.92135140
   146  N          0.16492810       0.88955000       0.57864860
   147  N          0.66492810       0.61045000       0.07864860
   148  N          0.83507190       0.11045000       0.42135140
   149  C          0.38993000       0.39256000       0.89722180
   150  C          0.11007000       0.89256000       0.60277820
   151  C          0.61007000       0.60744000       0.10277820
   152  C          0.88993000       0.10744000       0.39722180
   153  C          0.36653000       0.38556000       0.84106170
   154  C          0.13347000       0.88556000       0.65893830
   155  C          0.63347000       0.61444000       0.15893830
   156  C          0.86653000       0.11444000       0.34106170
   157  C          0.28693000       0.37626000       0.80793170
   158  C          0.21307000       0.87626000       0.69206830
   159  C          0.71307000       0.62374000       0.19206830
   160  C          0.78693000       0.12374000       0.30793170
   161  C          0.23323000       0.37226000       0.83498180
   162  C          0.26677000       0.87226000       0.66501820
   163  C          0.76677000       0.62774000       0.16501820
   164  C          0.73323000       0.12774000       0.33498180
   165  C          0.25813000       0.37926000       0.89122180
   166  C          0.24187000       0.87926000       0.60877820
   167  C          0.74187000       0.62074000       0.10877820
   168  C          0.75813000       0.12074000       0.39122180
   169  C          0.25863000       0.37246000       0.74633180
   170  C          0.24137000       0.87246000       0.75366820
   171  C          0.74137000       0.62754000       0.25366820
   172  C          0.75863000       0.12754000       0.24633180
   173  C          0.30363000       0.37426000       0.71546190
   174  C          0.19637000       0.87426000       0.78453810
   175  C          0.69637000       0.62574000       0.28453810
   176  C          0.80363000       0.12574000       0.21546190
   177  C          0.27743000       0.37956000       0.65448180
   178  C          0.22257000       0.87956000       0.84551820
   179  C          0.72257000       0.62044000       0.34551820
   180  C          0.77743000       0.12044000       0.15448180
   181  C          0.33343000       0.38206000       0.62992000
   182  C          0.16657000       0.88206000       0.87008000
   183  C          0.66657000       0.61794000       0.37008000
   184  C          0.83343000       0.11794000       0.12992000
   185  C          0.31153000       0.38887000       0.57312000
   186  C          0.18847000       0.88887000       0.92688000
   187  C          0.68847000       0.61113000       0.42688000
   188  C          0.81153000       0.11113000       0.07312000
   189  C          0.23313000       0.39227000       0.54052000
   190  C          0.26687000       0.89227000       0.95948000
   191  C          0.76687000       0.60773000       0.45948000
   192  C          0.73313000       0.10773000       0.04052000
   193  C          0.17483000       0.39006000       0.56344180
   194  C          0.32517000       0.89006000       0.93655820
   195  C          0.82517000       0.60994000       0.43655820
   196  C          0.67483000       0.10994000       0.06344180
   197  C          0.19773000       0.38146000       0.62108190
   198  C          0.30227000       0.88146000       0.87891810
   199  C          0.80227000       0.61854000       0.37891810
   200  C          0.69773000       0.11854000       0.12108190
   201  C          0.09093000       0.39887000       0.52872000
   202  C          0.40907000       0.89887000       0.97128000
   203  C          0.90907000       0.60113000       0.47128000
   204  C          0.59093000       0.10113000       0.02872000
   205  H          0.35010000       0.39430000       0.95770000
   206  H          0.14990000       0.89430000       0.54230000
   207  H          0.64990000       0.60570000       0.04230000
   208  H          0.85010000       0.10570000       0.45770000
   209  H          0.44410000       0.39940000       0.91920000
   210  H          0.05590000       0.89940000       0.58080000
   211  H          0.55590000       0.60060000       0.08080000
   212  H          0.94410000       0.10060000       0.41920000
   213  H          0.40500000       0.38700000       0.82390000
   214  H          0.09500000       0.88700000       0.67610000
   215  H          0.59500000       0.61300000       0.17610000
   216  H          0.90500000       0.11300000       0.32390000
   217  H          0.17850000       0.36460000       0.81410000
   218  H          0.32150000       0.86460000       0.68590000
   219  H          0.82150000       0.63540000       0.18590000
   220  H          0.67850000       0.13540000       0.31410000
   221  H          0.22080000       0.37680000       0.90940000
   222  H          0.27920000       0.87680000       0.59060000
   223  H          0.77920000       0.62320000       0.09060000
   224  H          0.72080000       0.12320000       0.40940000
   225  H          0.20340000       0.36840000       0.72740000
   226  H          0.29660000       0.86840000       0.77260000
   227  H          0.79660000       0.63160000       0.27260000
   228  H          0.70340000       0.13160000       0.22740000
   229  H          0.35870000       0.37180000       0.73480000
   230  H          0.14130000       0.87180000       0.76520000
   231  H          0.64130000       0.62820000       0.26520000
   232  H          0.85870000       0.12820000       0.23480000
   233  H          0.38760000       0.37900000       0.65230000
   234  H          0.11240000       0.87900000       0.84770000
   235  H          0.61240000       0.62100000       0.34770000
   236  H          0.88760000       0.12100000       0.15230000
   237  H          0.35050000       0.39110000       0.55640000
   238  H          0.14950000       0.89110000       0.94360000
   239  H          0.64950000       0.60890000       0.44360000
   240  H          0.85050000       0.10890000       0.05640000
   241  H          0.21870000       0.39620000       0.50130000
   242  H          0.28130000       0.89620000      -0.00130000
   243  H          0.78130000       0.60380000       0.49870000
   244  H          0.71870000       0.10380000       0.00130000
   245  H          0.15890000       0.37670000       0.63790000
   246  H          0.34110000       0.87670000       0.86210000
   247  H          0.84110000       0.62330000       0.36210000
   248  H          0.65890000       0.12330000       0.13790000
   249  H          0.05900000       0.39740000       0.55250000
   250  H          0.44100000       0.89740000       0.94750000
   251  H          0.94100000       0.60260000       0.44750000
   252  H          0.55900000       0.10260000       0.05250000
   253  H          0.07740000       0.28680000       0.50380000
   254  H          0.42260000       0.78680000      -0.00380000
   255  H          0.92260000       0.71320000       0.49620000
   256  H          0.57740000       0.21320000       0.00380000
   257  H          0.08060000       0.51800000       0.50670000
   258  H          0.41940000       0.01800000       0.99330000
   259  H          0.91940000       0.48200000       0.49330000
   260  H          0.58060000      -0.01800000       0.00670000
