data_FEQQUN
_symmetry_space_group_name_H-M    'P1'
_symmetry_Int_Tables_number       1
loop_
_symmetry_equiv_pos_site_id
_symmetry_equiv_pos_as_xyz
1 x,y,z
_cell_length_a                   7.8481
_cell_length_b                   10.2951
_cell_length_c                   17.3091
_cell_angle_alpha                77.291
_cell_angle_beta                 83.471
_cell_angle_gamma                89.591
loop_
_atom_site_label
_atom_site_type_symbol
_atom_site_fract_x
_atom_site_fract_y
_atom_site_fract_z
     1  Br         0.46545300       0.43384200       0.38499200
     2  Br         0.53454700       0.56615800       0.61500800
     3  Br         0.58345400       0.08612200       0.28033200
     4  Br         0.41654600       0.91387800       0.71966800
     5  C          0.61553000       0.68052000       0.28092000
     6  C          0.38447000       0.31948000       0.71908000
     7  C          0.50183000       0.62022000       0.35182000
     8  C          0.49817000       0.37978000       0.64818000
     9  C          0.41393000       0.69502000       0.39742000
    10  C          0.58607000       0.30498000       0.60258000
    11  H          0.33903600       0.65532800       0.44451800
    12  H          0.66096400       0.34467200       0.55548200
    13  C          0.43033000       0.83892000       0.38122000
    14  C          0.56967000       0.16108000       0.61878000
    15  C          0.54353000       0.90022000       0.31022000
    16  C          0.45647000       0.09978000       0.68978000
    17  C          0.62763000       0.82522000       0.26372000
    18  C          0.37237000       0.17478000       0.73628000
    19  H          0.69953800       0.86293000       0.21941900
    20  H          0.30046200       0.13707000       0.78058100
    21  C          0.71003000       0.61462000       0.22932000
    22  C          0.28997000       0.38538000       0.77068000
    23  C          0.34133000       0.90403000       0.43492000
    24  C          0.65867000       0.09597000       0.56508000
    25  C          0.72943000       0.47283000       0.23752000
    26  C          0.27057000       0.52717000       0.76248000
    27  C          0.81293000       0.68993000       0.15932000
    28  C          0.18707000       0.31007000       0.84068000
    29  C          0.23144000       0.83143000       0.50272000
    30  C          0.76856000       0.16857000       0.49728000
    31  C          0.35104000       0.04373000       0.43552000
    32  C          0.64896000       0.95627000       0.56448000
    33  N          0.76263000       0.36443000       0.23722000
    34  N          0.23737000       0.63557000       0.76278000
    35  N          0.89743000       0.74673000       0.10382000
    36  N          0.10257000       0.25327000       0.89618000
    37  N          0.14113000       0.77822000       0.55742000
    38  N          0.85887000       0.22178000       0.44258000
    39  N          0.34924000       0.14883000       0.44732000
    40  N          0.65076000       0.85117000       0.55268000
    41  S          0.32361900       0.51326700       0.17628400
    42  S          0.67638100       0.48673300       0.82371600
    43  S          0.40237900       0.82997700       0.09321400
    44  S          0.59762100       0.17002300       0.90678600
    45  S          0.27400110       0.46394900       0.01657500
    46  S          0.72599890       0.53605100       0.98342500
    47  S          0.34917110       0.77511800       0.93588500
    48  S          0.65082890       0.22488200       0.06411500
    49  C          0.11333000       0.63253000       0.28912000
    50  C          0.88667000       0.36747000       0.71088000
    51  C          0.03263000       0.52993000       0.34642000
    52  C          0.96737000       0.47007000       0.65358000
    53  H          0.04203700       0.43933100       0.34411800
    54  H          0.95796300       0.56066900       0.65588200
    55  C          0.92366000       0.56433000       0.41062000
    56  C          0.07634000       0.43567000       0.58938000
    57  H          0.86855500       0.48933600       0.44962200
    58  H          0.13144500       0.51066400       0.55037800
    59  C          0.89776000       0.69333000       0.41802000
    60  C          0.10224000       0.30667000       0.58198000
    61  H          0.82835200       0.71273800       0.46292400
    62  H          0.17164800       0.28726200       0.53707600
    63  C          0.96916000       0.94113000       0.35572000
    64  C          0.03084000       0.05887000       0.64428000
    65  H          0.90435800       0.96923300       0.40022100
    66  H          0.09564200       0.03076700       0.59977900
    67  C          0.05534000       0.03163000       0.29272000
    68  C          0.94466000       0.96837000       0.70728000
    69  H          0.04484400       0.12453700       0.29292200
    70  H          0.95515600       0.87546300       0.70707800
    71  C          0.15954000      -0.00827000       0.22952000
    72  C          0.84046000       0.00827000       0.77048000
    73  H          0.21954100       0.05953300       0.18652000
    74  H          0.78045900       0.94046700       0.81348000
    75  C          0.17443000       0.85803000       0.23182000
    76  C          0.82557000       0.14197000       0.76818000
    77  C          0.08413000       0.76543000       0.29652000
    78  C          0.91587000       0.23457000       0.70348000
    79  C          0.98057000       0.80133000       0.35922000
    80  C          0.01943000       0.19867000       0.64078000
    81  C          0.23553000       0.64343000       0.21672000
    82  C          0.76447000       0.35657000       0.78328000
    83  C          0.26973000       0.77513000       0.18272000
    84  C          0.73027000       0.22487000       0.81728000
    85  C          0.31073000       0.58233000       0.07292000
    86  C          0.68927000       0.41767000       0.92708000
    87  C          0.34293000       0.71103000       0.03932000
    88  C          0.65707000       0.28897000       0.96068000
    89  C          0.11156000       0.35545000       0.07823000
    90  C          0.88844000       0.64455000       0.92177000
    91  H          0.14556500       0.31615100       0.12433400
    92  H          0.85443500       0.68384900       0.87566600
    93  H          0.01667800       0.40666100       0.08863600
    94  H          0.98332200       0.59333900       0.91136400
    95  H          0.08996400       0.29815300       0.05133300
    96  H          0.91003600       0.70184700       0.94866700
    97  C          0.20175000       0.91204000       0.93338000
    98  C          0.79825000       0.08796000       0.06662000
    99  H          0.26144600      -0.00656300       0.94047800
   100  H          0.73855400       0.00656300       0.05952200
   101  H          0.10254900       0.88313700       0.97047600
   102  H          0.89745100       0.11686300       0.02952400
   103  H          0.16235100       0.93284000       0.87997400
   104  H          0.83764900       0.06716000       0.12002600
