data_FEQYUX
_symmetry_space_group_name_H-M    'P1'
_symmetry_Int_Tables_number       1
loop_
_symmetry_equiv_pos_site_id
_symmetry_equiv_pos_as_xyz
1 x,y,z
_cell_length_a                   11.84194
_cell_length_b                   14.03794
_cell_length_c                   15.391811
_cell_angle_alpha                91.6657
_cell_angle_beta                 90.3226
_cell_angle_gamma                96.2317
loop_
_atom_site_label
_atom_site_type_symbol
_atom_site_fract_x
_atom_site_fract_y
_atom_site_fract_z
     1  P          0.70670130       0.65883100       0.26604900
     2  P          0.29329870       0.34116900       0.73395100
     3  P          0.90779130       0.67554100       0.17625900
     4  P          0.09220870       0.32445900       0.82374100
     5  P          0.71014130       0.59098100       0.09512900
     6  P          0.28985870       0.40901900       0.90487100
     7  O          0.02283000       0.63062000       0.19192000
     8  O          0.97717000       0.36938000       0.80808000
     9  O          0.95673000       0.78232000       0.15972000
    10  O          0.04327000       0.21768000       0.84028000
    11  N          0.56624000       0.13123000       0.44903000
    12  N          0.43376000       0.86877000       0.55097000
    13  H          0.62230000       0.13940000       0.48720000
    14  H          0.37770000       0.86060000       0.51280000
    15  N          0.68714000       0.97893000       0.45783000
    16  N          0.31286000       0.02107000       0.54217000
    17  N          0.93154000       0.86623000       0.53063000
    18  N          0.06846000       0.13377000       0.46937000
    19  O          0.68403000       0.48542000       0.05842000
    20  O          0.31597000       0.51458000       0.94158000
    21  O          0.67003000       0.61122000       0.35412000
    22  O          0.32997000       0.38878000       0.64588000
    23  O          0.64283000       0.75262000       0.27612000
    24  O          0.35717000       0.24738000       0.72388000
    25  N          0.64724000       0.60293000       0.18453000
    26  N          0.35276000       0.39707000       0.81547000
    27  O          0.64903000       0.63772000       0.01772000
    28  O          0.35097000       0.36228000       0.98228000
    29  N          0.85054000      -0.00997000       0.58813000
    30  N          0.14946000       0.00997000       0.41187000
    31  H          0.80120000       0.03210000       0.59560000
    32  H          0.19880000       0.96790000       0.40440000
    33  N          0.84224000       0.62523000       0.09543000
    34  N          0.15776000       0.37477000       0.90457000
    35  N          0.44924000       0.06003000       0.34683000
    36  N          0.55076000       0.93997000       0.65317000
    37  C          0.66065000       0.82514000       0.33973000
    38  C          0.33935000       0.17486000       0.66027000
    39  C          0.53865000       0.05234000       0.39664000
    40  C          0.46135000       0.94766000       0.60336000
    41  N          0.84074000       0.68123000       0.26503000
    42  N          0.15926000       0.31877000       0.73497000
    43  C          0.84665000       0.91974000       0.52493000
    44  C          0.15335000       0.08026000       0.47507000
    45  C          0.02326000       0.81144000       0.08614000
    46  C          0.97674000       0.18856000       0.91386000
    47  C          0.74605000       0.83024000       0.40083000
    48  C          0.25395000       0.16976000       0.59917000
    49  H          0.79630000       0.78200000       0.40330000
    50  H          0.20370000       0.21800000       0.59670000
    51  C          0.02805000       0.53014000       0.19413000
    52  C          0.97195000       0.46986000       0.80587000
    53  C          0.00745000       0.48494000       0.27084000
    54  C         -0.00745000       0.51506000       0.72916000
    55  H          0.98530000       0.51910000       0.32090000
    56  H          0.01470000       0.48090000       0.67910000
    57  C          0.72715000       0.53914000       0.39104000
    58  C          0.27285000       0.46086000       0.60896000
    59  C         -0.01015000       0.03624000       0.70904000
    60  C          0.01015000       0.96376000       0.29096000
    61  H          0.95390000       0.08800000       0.73330000
    62  H          0.04610000       0.91200000       0.26670000
    63  C          0.69985000       0.44564000       0.36424000
    64  C          0.30015000       0.55436000       0.63576000
    65  H          0.64610000       0.42900000       0.31870000
    66  H          0.35390000       0.57100000       0.68130000
    67  C          0.09545000       0.88024000       0.63844000
    68  C          0.90455000       0.11976000       0.36156000
    69  H          0.13130000       0.82780000       0.61520000
    70  H          0.86870000       0.17220000       0.38480000
    71  C         -0.00625000       0.90424000       0.60194000
    72  C          0.00625000       0.09576000       0.39806000
    73  C          0.75615000       0.90844000       0.45893000
    74  C          0.24385000       0.09156000       0.54107000
    75  C          0.94505000       0.98324000       0.63773000
    76  C          0.05495000       0.01676000       0.36227000
    77  C          0.64926000       0.73814000       0.00914000
    78  C          0.35074000       0.26186000       0.99086000
    79  C          0.49015000       0.19604000       0.43144000
    80  C          0.50985000       0.80396000       0.56856000
    81  C          0.32775000       0.19744000       0.33474000
    82  C          0.67225000       0.80256000       0.66526000
    83  H          0.27520000       0.16710000       0.29300000
    84  H          0.72480000       0.83290000       0.70700000
    85  C          0.58925000       0.89574000       0.33573000
    86  C          0.41075000       0.10426000       0.66427000
    87  H          0.53060000       0.89300000       0.29310000
    88  H          0.46940000       0.10700000       0.70690000
    89  C          0.48085000       0.28924000       0.46364000
    90  C          0.51915000       0.71076000       0.53636000
    91  H          0.53080000       0.31910000       0.50720000
    92  H          0.46920000       0.68090000       0.49280000
    93  C          0.41725000       0.15064000       0.36744000
    94  C          0.58275000       0.84936000       0.63256000
    95  C          0.13716000       0.79955000       0.08424000
    96  C          0.86284000       0.20045000       0.91576000
    97  H          0.17210000       0.76870000       0.12970000
    98  H          0.82790000       0.23130000       0.87030000
    99  C          0.07215000       0.38614000       0.12344000
   100  C          0.92785000       0.61386000       0.87656000
   101  H          0.09260000       0.35200000       0.07270000
   102  H          0.90740000       0.64800000       0.92730000
   103  C          0.06125000       0.48274000       0.11994000
   104  C          0.93875000       0.51726000       0.88006000
   105  H          0.07630000       0.51610000       0.06770000
   106  H          0.92370000       0.48390000       0.93230000
   107  C          0.56016000       0.36964000       0.13374000
   108  C          0.43984000       0.63036000       0.86626000
   109  H          0.49680000       0.39960000       0.11440000
   110  H          0.50320000       0.60040000       0.88560000
   111  C          0.31976000       0.28975000       0.36614000
   112  C          0.68024000       0.71025000       0.63386000
   113  H          0.26060000       0.32340000       0.34450000
   114  H          0.73940000       0.67660000       0.65550000
   115  C          0.60585000       0.97114000       0.39644000
   116  C          0.39415000       0.02886000       0.60356000
   117  C          0.67036000       0.40554000       0.11314000
   118  C          0.32964000       0.59446000       0.88686000
   119  C          0.08966000       0.01034000       0.74314000
   120  C          0.91034000       0.98966000       0.25686000
   121  H          0.12350000       0.04590000       0.79170000
   122  H          0.87650000       0.95410000       0.20830000
   123  C          0.76205000       0.36354000       0.13964000
   124  C          0.23795000       0.63646000       0.86036000
   125  H          0.83660000       0.38940000       0.12450000
   126  H          0.16340000       0.61060000       0.87550000
   127  C          0.14225000       0.93414000       0.70874000
   128  C          0.85775000       0.06586000       0.29126000
   129  H          0.21120000       0.91890000       0.73380000
   130  H          0.78880000       0.08110000       0.26620000
   131  C          0.80465000       0.56495000       0.45724000
   132  C          0.19535000       0.43505000       0.54276000
   133  H          0.82320000       0.63020000       0.47450000
   134  H          0.17680000       0.36980000       0.52550000
   135  C          0.39486000       0.33515000       0.42814000
   136  C          0.60514000       0.66485000       0.57186000
   137  H          0.38660000       0.39920000       0.44650000
   138  H          0.61340000       0.60080000       0.55350000
   139  C          0.96886000       0.85554000       0.02154000
   140  C          0.03114000       0.14446000       0.97846000
   141  H          0.88990000       0.86210000       0.02440000
   142  H          0.11010000       0.13790000       0.97560000
   143  C          0.63676000       0.24514000       0.21114000
   144  C          0.36324000       0.75486000       0.78886000
   145  H          0.62550000       0.18970000       0.24530000
   146  H          0.37450000       0.81030000       0.75470000
   147  C          0.05305000       0.33864000       0.20054000
   148  C          0.94695000       0.66136000       0.79946000
   149  H          0.06280000       0.27240000       0.20310000
   150  H          0.93720000       0.72760000       0.79690000
   151  C          0.03387000       0.88985000       0.95186000
   152  C          0.96613000       0.11015000       0.04814000
   153  H         -0.00060000       0.92160000       0.90670000
   154  H          0.00060000       0.07840000       0.09330000
   155  C          0.85465000       0.49286000       0.49764000
   156  C          0.14535000       0.50714000       0.50236000
   157  H          0.90760000       0.50900000       0.54370000
   158  H          0.09240000       0.49100000       0.45630000
   159  C          0.69785000       0.77755000       0.93646000
   160  C          0.30215000       0.22245000       0.06354000
   161  H          0.73630000       0.73960000       0.89670000
   162  H          0.26370000       0.26040000       0.10330000
   163  C          0.14617000       0.87835000       0.94785000
   164  C          0.85383000       0.12165000       0.05215000
   165  H          0.18920000       0.90110000       0.89950000
   166  H          0.81080000       0.09890000       0.10050000
   167  C          0.82836000       0.39835000       0.47205000
   168  C          0.17164000       0.60165000       0.52795000
   169  H          0.86250000       0.34940000       0.50040000
   170  H          0.13750000       0.65060000       0.49960000
   171  C          0.69067000       0.87266000       0.92135000
   172  C          0.30933000       0.12734000       0.07865000
   173  H          0.72230000       0.90010000       0.87010000
   174  H          0.27770000       0.09990000       0.12990000
   175  C          0.01985000       0.38774000       0.27384000
   176  C          0.98015000       0.61226000       0.72616000
   177  H          0.00530000       0.35470000       0.32630000
   178  H         -0.00530000       0.64530000       0.67370000
   179  C          0.59526000       0.79015000       0.06924000
   180  C          0.40474000       0.20985000       0.93076000
   181  H          0.56250000       0.76140000       0.11960000
   182  H          0.43750000       0.23860000       0.88040000
   183  C          0.75316000       0.37555000       0.40565000
   184  C          0.24684000       0.62445000       0.59435000
   185  H          0.73650000       0.31030000       0.38710000
   186  H          0.26350000       0.68970000       0.61290000
   187  C          0.74546000       0.28264000       0.18884000
   188  C          0.25454000       0.71736000       0.81116000
   189  H          0.80890000       0.25240000       0.20750000
   190  H          0.19110000       0.74760000       0.79250000
   191  C          0.63828000       0.92785000       0.97964000
   192  C          0.36172000       0.07215000       0.02036000
   193  H          0.63490000      -0.00610000       0.96940000
   194  H          0.36510000       0.00610000       0.03060000
   195  C          0.19857000       0.83385000       0.01385000
   196  C          0.80143000       0.16615000       0.98615000
   197  H          0.27720000       0.82690000       0.01040000
   198  H          0.72280000       0.17310000       0.98960000
   199  C          0.58998000       0.88795000       0.05365000
   200  C          0.41002000       0.11205000       0.94635000
   201  H          0.55310000       0.92650000       0.09390000
   202  H          0.44690000       0.07350000       0.90610000
   203  C          0.54576000       0.28865000       0.18334000
   204  C          0.45424000       0.71135000       0.81666000
   205  H          0.47110000       0.26280000       0.19830000
   206  H          0.52890000       0.73720000       0.80170000
   207  O          0.73744000       0.17533000       0.59213000
   208  O          0.26256000       0.82467000       0.40787000
   209  H          0.81720000       0.20240000       0.58440000
   210  H          0.18280000       0.79760000       0.41560000
   211  H          0.69560000       0.19260000       0.64530000
   212  H          0.30440000       0.80740000       0.35470000
   213  O          0.33854000       0.73264000       0.25083000
   214  O          0.66146000       0.26736000       0.74917000
   215  C          0.34645000       0.64826000       0.23095000
   216  C          0.65355000       0.35174000       0.76905000
   217  C          0.35077000       0.57646000       0.29885000
   218  C          0.64923000       0.42354000       0.70115000
   219  H          0.42760000       0.55690000       0.30220000
   220  H          0.57240000       0.44310000       0.69780000
   221  H          0.29660000       0.52030000       0.28420000
   222  H          0.70340000       0.47970000       0.71580000
   223  H          0.33080000       0.60430000       0.35490000
   224  H          0.66920000       0.39570000       0.64510000
   225  C          0.35136000       0.61386000       0.13905000
   226  C          0.64864000       0.38614000       0.86095000
   227  H          0.28100000       0.57320000       0.12390000
   228  H          0.71900000       0.42680000       0.87610000
   229  H          0.41620000       0.57660000       0.13160000
   230  H          0.58380000       0.42340000       0.86840000
   231  H          0.35990000       0.66890000       0.10100000
   232  H          0.64010000       0.33110000       0.89900000
   233  O          0.03494000       0.75213000       0.40853000
   234  O          0.96506000       0.24787000       0.59147000
   235  H          0.98560000       0.78550000       0.44840000
   236  H          0.01440000       0.21450000       0.55160000
   237  H          0.98140000       0.73840000       0.36230000
   238  H          0.01860000       0.26160000       0.63770000
   239  O          0.34438000       0.94145000       0.20525000
   240  O          0.65562000       0.05855000       0.79475000
   241  H          0.37670000       0.98450000       0.25640000
   242  H          0.62330000       0.01550000       0.74360000
   243  H          0.30480000       0.89560000       0.24760000
   244  H          0.69520000       0.10440000       0.75240000
