data_FERROM
_symmetry_space_group_name_H-M    'P1'
_symmetry_Int_Tables_number       1
loop_
_symmetry_equiv_pos_site_id
_symmetry_equiv_pos_as_xyz
1 x,y,z
_cell_length_a                   13.9374
_cell_length_b                   10.5163
_cell_length_c                   18.0215
_cell_angle_alpha                90.0
_cell_angle_beta                 104.9097
_cell_angle_gamma                90.0
loop_
_atom_site_label
_atom_site_type_symbol
_atom_site_fract_x
_atom_site_fract_y
_atom_site_fract_z
     1  C          0.37153000       0.20965000       0.33503000
     2  C          0.62847000       0.70965000       0.16497000
     3  C          0.62847000       0.79035000       0.66497000
     4  C          0.37153000       0.29035000       0.83503000
     5  C          0.43533000       0.30245000       0.37253000
     6  C          0.56467000       0.80245000       0.12747000
     7  C          0.56467000       0.69755000       0.62747000
     8  C          0.43533000       0.19755000       0.87253000
     9  H          0.40960000       0.37470000       0.39240000
    10  H          0.59040000       0.87470000       0.10760000
    11  H          0.59040000       0.62530000       0.60760000
    12  H          0.40960000       0.12530000       0.89240000
    13  C          0.53804000       0.29135000       0.38153000
    14  C          0.46196000       0.79135000       0.11847000
    15  C          0.46196000       0.70865000       0.61847000
    16  C          0.53804000       0.20865000       0.88153000
    17  H          0.58190000       0.35650000       0.40630000
    18  H          0.41810000       0.85650000       0.09370000
    19  H          0.41810000       0.64350000       0.59370000
    20  H          0.58190000       0.14350000       0.90630000
    21  C          0.57414000       0.18525000       0.35413000
    22  C          0.42586000       0.68525000       0.14587000
    23  C          0.42586000       0.81475000       0.64587000
    24  C          0.57414000       0.31475000       0.85413000
    25  H          0.64340000       0.17540000       0.35990000
    26  H          0.35660000       0.67540000       0.14010000
    27  H          0.35660000       0.82460000       0.64010000
    28  H          0.64340000       0.32460000       0.85990000
    29  C          0.50864000       0.09245000       0.31783000
    30  C          0.49136000       0.59245000       0.18217000
    31  C          0.49136000       0.90755000       0.68217000
    32  C          0.50864000       0.40755000       0.81783000
    33  H          0.53390000       0.01790000       0.29970000
    34  H          0.46610000       0.51790000       0.20030000
    35  H          0.46610000       0.98210000       0.70030000
    36  H          0.53390000       0.48210000       0.79970000
    37  C          0.34574000       0.00515000       0.26033000
    38  C          0.65426000       0.50515000       0.23967000
    39  C          0.65426000      -0.00515000       0.73967000
    40  C          0.34574000       0.49485000       0.76033000
    41  H          0.32160000       0.03510000       0.20730000
    42  H          0.67840000       0.53510000       0.29270000
    43  H          0.67840000       0.96490000       0.79270000
    44  H          0.32160000       0.46490000       0.70730000
    45  H          0.28910000      -0.01260000       0.28160000
    46  H          0.71090000       0.48740000       0.21840000
    47  H          0.71090000       0.01260000       0.71840000
    48  H          0.28910000       0.51260000       0.78160000
    49  H          0.38460000       0.92720000       0.26110000
    50  H          0.61540000       0.42720000       0.23890000
    51  H          0.61540000       0.07280000       0.73890000
    52  H          0.38460000       0.57280000       0.76110000
    53  C          0.19004000       0.10945000       0.36923000
    54  C          0.80996000       0.60945000       0.13077000
    55  C          0.80996000       0.89055000       0.63077000
    56  C          0.19004000       0.39055000       0.86923000
    57  C          0.08704000       0.10825000       0.36153000
    58  C          0.91296000       0.60825000       0.13847000
    59  C          0.91296000       0.89175000       0.63847000
    60  C          0.08704000       0.39175000       0.86153000
    61  H          0.04540000       0.16850000       0.32920000
    62  H          0.95460000       0.66850000       0.17080000
    63  H          0.95460000       0.83150000       0.67080000
    64  H          0.04540000       0.33150000       0.82920000
    65  C          0.04674000       0.01945000       0.40093000
    66  C          0.95326000       0.51945000       0.09907000
    67  C          0.95326000       0.98055000       0.59907000
    68  C          0.04674000       0.48055000       0.90093000
    69  H          0.97690000       0.01690000       0.39450000
    70  H          0.02310000       0.51690000       0.10550000
    71  H          0.02310000       0.98310000       0.60550000
    72  H          0.97690000       0.48310000       0.89450000
    73  C          0.10724000       0.93405000       0.44973000
    74  C          0.89276000       0.43405000       0.05027000
    75  C          0.89276000       0.06595000       0.55027000
    76  C          0.10724000       0.56595000       0.94973000
    77  H          0.07890000       0.87330000       0.47680000
    78  H          0.92110000       0.37330000       0.02320000
    79  H          0.92110000       0.12670000       0.52320000
    80  H          0.07890000       0.62670000       0.97680000
    81  C          0.20954000       0.93685000       0.45923000
    82  C          0.79046000       0.43685000       0.04077000
    83  C          0.79046000       0.06315000       0.54077000
    84  C          0.20954000       0.56315000       0.95923000
    85  H          0.25090000       0.87880000       0.49340000
    86  H          0.74910000       0.37880000       0.00660000
    87  H          0.74910000       0.12120000       0.50660000
    88  H          0.25090000       0.62120000      -0.00660000
    89  C          0.25134000       0.02435000       0.41903000
    90  C          0.74866000       0.52435000       0.08097000
    91  C          0.74866000       0.97565000       0.58097000
    92  C          0.25134000       0.47565000       0.91903000
    93  H          0.32110000       0.02600000       0.42540000
    94  H          0.67890000       0.52600000       0.07460000
    95  H          0.67890000       0.97400000       0.57460000
    96  H          0.32110000       0.47400000       0.92540000
    97  C          0.18504000       0.22375000       0.21783000
    98  C          0.81496000       0.72375000       0.28217000
    99  C          0.81496000       0.77625000       0.78217000
   100  C          0.18504000       0.27625000       0.71783000
   101  C          0.21754000       0.31315000       0.17193000
   102  C          0.78246000       0.81315000       0.32807000
   103  C          0.78246000       0.68685000       0.82807000
   104  C          0.21754000       0.18685000       0.67193000
   105  H          0.26640000       0.37430000       0.19460000
   106  H          0.73360000       0.87430000       0.30540000
   107  H          0.73360000       0.62570000       0.80540000
   108  H          0.26640000       0.12570000       0.69460000
   109  C          0.17814000       0.31165000       0.09363000
   110  C          0.82186000       0.81165000       0.40637000
   111  C          0.82186000       0.68835000       0.90637000
   112  C          0.17814000       0.18835000       0.59363000
   113  H          0.19900000       0.37300000       0.06250000
   114  H          0.80100000       0.87300000       0.43750000
   115  H          0.80100000       0.62700000       0.93750000
   116  H          0.19900000       0.12700000       0.56250000
   117  C          0.10874000       0.22216000       0.06023000
   118  C          0.89126000       0.72216000       0.43977000
   119  C          0.89126000       0.77784000       0.93977000
   120  C          0.10874000       0.27784000       0.56023000
   121  H          0.08070000       0.22340000       0.00630000
   122  H          0.91930000       0.72340000       0.49370000
   123  H          0.91930000       0.77660000      -0.00630000
   124  H          0.08070000       0.27660000       0.50630000
   125  C          0.07934000       0.13075000       0.10443000
   126  C          0.92066000       0.63075000       0.39557000
   127  C          0.92066000       0.86925000       0.89557000
   128  C          0.07934000       0.36925000       0.60443000
   129  H          0.03320000       0.06710000       0.08060000
   130  H          0.96680000       0.56710000       0.41940000
   131  H          0.96680000       0.93290000       0.91940000
   132  H          0.03320000       0.43290000       0.58060000
   133  C          0.11684000       0.13105000       0.18343000
   134  C          0.88316000       0.63105000       0.31657000
   135  C          0.88316000       0.86895000       0.81657000
   136  C          0.11684000       0.36895000       0.68343000
   137  H          0.09610000       0.06830000       0.21390000
   138  H          0.90390000       0.56830000       0.28610000
   139  H          0.90390000       0.93170000       0.78610000
   140  H          0.09610000       0.43170000       0.71390000
   141  C          0.21693000       0.37854000       0.35853000
   142  C          0.78307000       0.87854000       0.14147000
   143  C          0.78307000       0.62146000       0.64147000
   144  C          0.21693000       0.12146000       0.85853000
   145  C          0.24084000       0.38825000       0.43813000
   146  C          0.75916000       0.88825000       0.06187000
   147  C          0.75916000       0.61175000       0.56187000
   148  C          0.24084000       0.11175000       0.93813000
   149  H          0.27100000       0.31840000       0.46890000
   150  H          0.72900000       0.81840000       0.03110000
   151  H          0.72900000       0.68160000       0.53110000
   152  H          0.27100000       0.18160000       0.96890000
   153  C          0.22084000       0.49915000       0.47253000
   154  C          0.77916000      -0.00085000       0.02747000
   155  C          0.77916000       0.50085000       0.52747000
   156  C          0.22084000       0.00085000       0.97253000
   157  H          0.23760000       0.50610000       0.52690000
   158  H          0.76240000       0.00610000       0.97310000
   159  H          0.76240000       0.49390000       0.47310000
   160  H          0.23760000      -0.00610000       0.02690000
   161  C          0.17614000       0.60025000       0.42703000
   162  C          0.82386000       0.10025000       0.07297000
   163  C          0.82386000       0.39975000       0.57297000
   164  C          0.17614000       0.89975000       0.92703000
   165  H          0.16060000       0.67560000       0.45060000
   166  H          0.83940000       0.17560000       0.04940000
   167  H          0.83940000       0.32440000       0.54940000
   168  H          0.16060000       0.82440000       0.95060000
   169  C          0.15414000       0.59315000       0.34913000
   170  C          0.84586000       0.09315000       0.15087000
   171  C          0.84586000       0.40685000       0.65087000
   172  C          0.15414000       0.90685000       0.84913000
   173  H          0.12570000       0.66410000       0.31880000
   174  H          0.87430000       0.16410000       0.18120000
   175  H          0.87430000       0.33590000       0.68120000
   176  H          0.12570000       0.83590000       0.81880000
   177  C          0.17324000       0.48215000       0.31393000
   178  C          0.82676000       0.98215000       0.18607000
   179  C          0.82676000       0.51785000       0.68607000
   180  C          0.17324000       0.01785000       0.81393000
   181  H          0.15660000       0.47650000       0.25940000
   182  H          0.84340000       0.97650000       0.24060000
   183  H          0.84340000       0.52350000       0.74060000
   184  H          0.15660000       0.02350000       0.75940000
   185  N          0.40953000       0.10484000       0.30732000
   186  N          0.59047000       0.60484000       0.19268000
   187  N          0.59047000       0.89516000       0.69268000
   188  N          0.40953000       0.39516000       0.80732000
   189  P          0.23784900       0.22944120       0.31869700
   190  P          0.76215100       0.72944120       0.18130300
   191  P          0.76215100       0.77055880       0.68130300
   192  P          0.23784900       0.27055880       0.81869700
   193  C          0.43084000       0.68516000       0.38523000
   194  C          0.56916000       0.18516000       0.11477000
   195  C          0.56916000       0.31484000       0.61477000
   196  C          0.43084000       0.81484000       0.88523000
   197  O          0.54032000       0.79783000       0.31323190
   198  O          0.45968000       0.29783000       0.18676810
   199  O          0.45968000       0.20217000       0.68676810
   200  O          0.54032000       0.70217000       0.81323190
   201  O          0.60353000       0.61113000       0.38732000
   202  O          0.39647000       0.11113000       0.11268000
   203  O          0.39647000       0.38887000       0.61268000
   204  O          0.60353000       0.88887000       0.88732000
   205  O          0.58603000       0.80883000       0.45192000
   206  O          0.41397000       0.30883000       0.04808000
   207  O          0.41397000       0.19117000       0.54808000
   208  O          0.58603000       0.69117000       0.95192000
   209  F          0.37182000       0.78293000       0.38862000
   210  F          0.62818000       0.28293000       0.11138000
   211  F          0.62818000       0.21707000       0.61138000
   212  F          0.37182000       0.71707000       0.88862000
   213  F          0.43012000       0.61023000       0.44604180
   214  F          0.56988000       0.11023000       0.05395820
   215  F          0.56988000       0.38977000       0.55395820
   216  F          0.43012000       0.88977000       0.94604180
   217  F          0.38642000       0.61713000       0.32292190
   218  F          0.61358000       0.11713000       0.17707810
   219  F          0.61358000       0.38287000       0.67707810
   220  F          0.38642000       0.88287000       0.82292190
   221  S          0.55446100       0.73162130       0.38472800
   222  S          0.44553900       0.23162130       0.11527200
   223  S          0.44553900       0.26837870       0.61527200
   224  S          0.55446100       0.76837870       0.88472800
   225  B          0.84304000       0.27256000       0.35573000
   226  B          0.15696000       0.77256000       0.14427000
   227  B          0.15696000       0.72744000       0.64427000
   228  B          0.84304000       0.22744000       0.85573000
   229  F          0.76132000       0.34343000       0.36382170
   230  F          0.23868000       0.84343000       0.13617830
   231  F          0.23868000       0.65657000       0.63617830
   232  F          0.76132000       0.15657000       0.86382170
   233  F          0.81672000       0.14473000       0.34791170
   234  F          0.18328000       0.64473000       0.15208830
   235  F          0.18328000       0.85527000       0.65208830
   236  F          0.81672000       0.35527000       0.84791170
   237  F          0.92092000       0.29133000       0.41904180
   238  F          0.07908000       0.79133000       0.08095820
   239  F          0.07908000       0.70867000       0.58095820
   240  F          0.92092000       0.20867000       0.91904180
   241  F          0.86893000       0.31423000       0.29031180
   242  F          0.13107000       0.81423000       0.20968820
   243  F          0.13107000       0.68577000       0.70968820
   244  F          0.86893000       0.18577000       0.79031180
