data_FERZIM
_symmetry_space_group_name_H-M    'P1'
_symmetry_Int_Tables_number       1
loop_
_symmetry_equiv_pos_site_id
_symmetry_equiv_pos_as_xyz
1 x,y,z
_cell_length_a                   9.45479
_cell_length_b                   10.16251
_cell_length_c                   11.398011
_cell_angle_alpha                85.1365
_cell_angle_beta                 81.4195
_cell_angle_gamma                72.2435
loop_
_atom_site_label
_atom_site_type_symbol
_atom_site_fract_x
_atom_site_fract_y
_atom_site_fract_z
     1  O          0.06358130       0.84221860      -0.00893100
     2  O          0.93641870       0.15778140       0.00893100
     3  H          0.08090000       0.86070000       0.05700000
     4  H          0.91910000       0.13930000       0.94300000
     5  O          0.59266140       0.74132850       0.90527900
     6  O          0.40733860       0.25867150       0.09472100
     7  H          0.58500000       0.75510000       0.97790000
     8  H          0.41500000       0.24490000       0.02210000
     9  O          0.58500150       0.56189850       0.59388900
    10  O          0.41499850       0.43810150       0.40611100
    11  O          0.30441140       0.62726860       0.63893900
    12  O          0.69558860       0.37273140       0.36106100
    13  H          0.38940000       0.59750000       0.59960000
    14  H          0.61060000       0.40250000       0.40040000
    15  C          0.19442000       0.78567810       0.92267860
    16  C          0.80558000       0.21432190       0.07732140
    17  C          0.33112000       0.78323810       0.95449860
    18  C          0.66888000       0.21676190       0.04550140
    19  H          0.33450000       0.81900000       0.02800000
    20  H          0.66550000       0.18100000       0.97200000
    21  C          0.46282000       0.72911810       0.88013860
    22  C          0.53718000       0.27088190       0.11986140
    23  C          0.46232000       0.66601810       0.77292870
    24  C          0.53768000       0.33398190       0.22707130
    25  C          0.31842000       0.67575810       0.74204870
    26  C          0.68158000       0.32424190       0.25795130
    27  C          0.18762000       0.73376810       0.81516860
    28  C          0.81238000       0.26623190       0.18483140
    29  H          0.09350000       0.73830000       0.79230000
    30  H          0.90650000       0.26170000       0.20770000
    31  C          0.59592000       0.59337810       0.69559860
    32  C          0.40408000       0.40662190       0.30440140
    33  C          0.74982000       0.54725810       0.73153860
    34  C          0.25018000       0.45274190       0.26846140
    35  C          0.78022000       0.48798000       0.84269840
    36  C          0.21978000       0.51202000       0.15730160
    37  H          0.70090000       0.47670000       0.90060000
    38  H          0.29910000       0.52330000       0.09940000
    39  C          0.92593000       0.44518000       0.86928810
    40  C          0.07407000       0.55482000       0.13071190
    41  H          0.94670000       0.40460000       0.94540000
    42  H          0.05330000       0.59540000       0.05460000
    43  C          0.04103000       0.46158000       0.78498000
    44  C          0.95897000       0.53842000       0.21502000
    45  H          0.14060000       0.43400000       0.80400000
    46  H          0.85940000       0.56600000       0.19600000
    47  C          0.01242000       0.51778000       0.67348000
    48  C          0.98758000       0.48222000       0.32652000
    49  H          0.09230000       0.52770000       0.61560000
    50  H          0.90770000       0.47230000       0.38440000
    51  C          0.86762000       0.55958000       0.64612840
    52  C          0.13238000       0.44042000       0.35387160
    53  H          0.84810000       0.59700000       0.56890000
    54  H          0.15190000       0.40300000       0.43110000
    55  N          0.11717180       0.91173830       0.20467120
    56  N          0.88282820       0.08826170       0.79532880
    57  N          0.41052180       0.20165170       0.86788120
    58  N          0.58947820       0.79834830       0.13211880
    59  C          0.10932000       0.83478000       0.30489160
    60  C          0.89068000       0.16522000       0.69510840
    61  H          0.07310000       0.75730000       0.30430000
    62  H          0.92690000       0.24270000       0.69570000
    63  C          0.15082000       0.86158000       0.40975150
    64  C          0.84918000       0.13842000       0.59024850
    65  H          0.14260000       0.80390000       0.47890000
    66  H          0.85740000       0.19610000       0.52110000
    67  C          0.20495190       0.97436810       0.41286140
    68  C          0.79504810       0.02563190       0.58713860
    69  C          0.21462000       0.05442000       0.30778140
    70  C          0.78538000       0.94558000       0.69221860
    71  H          0.25170000       0.13180000       0.30480000
    72  H          0.74830000       0.86820000       0.69520000
    73  C          0.16942000       0.01912000       0.20849150
    74  C          0.83058000       0.98088000       0.79150850
    75  H          0.17580000       0.07510000       0.13800000
    76  H          0.82420000       0.92490000       0.86200000
    77  C          0.24682000       0.00472000       0.52466140
    78  C          0.75318000      -0.00472000       0.47533860
    79  H          0.22500000       0.95090000       0.59340000
    80  H          0.77500000       0.04910000       0.40660000
    81  C          0.31202000       0.09972000       0.53878140
    82  C          0.68798000       0.90028000       0.46121860
    83  H          0.33880000       0.15070000       0.46980000
    84  H          0.66120000       0.84930000       0.53020000
    85  C          0.34632000       0.13278180       0.65245140
    86  C          0.65368000       0.86721820       0.34754860
    87  C          0.30083000       0.07452000       0.76013150
    88  C          0.69917000       0.92548000       0.23986850
    89  H          0.24660000       0.00930000       0.76270000
    90  H          0.75340000      -0.00930000       0.23730000
    91  C          0.33483000       0.11172000       0.86337170
    92  C          0.66517000       0.88828000       0.13662830
    93  H          0.30200000       0.07050000       0.93610000
    94  H          0.69800000       0.92950000       0.06390000
    95  C          0.45402000       0.25772000       0.76446160
    96  C          0.54598000       0.74228000       0.23553840
    97  H          0.50850000       0.32220000       0.76490000
    98  H          0.49150000       0.67780000       0.23510000
    99  C          0.42422000       0.22762000       0.65646150
   100  C          0.57578000       0.77238000       0.34353850
   101  H          0.45700000       0.27170000       0.58530000
   102  H          0.54300000       0.72830000       0.41470000
