data_FETTII
_symmetry_space_group_name_H-M    'P1'
_symmetry_Int_Tables_number       1
loop_
_symmetry_equiv_pos_site_id
_symmetry_equiv_pos_as_xyz
1 x,y,z
_cell_length_a                   13.3373
_cell_length_b                   5.397714
_cell_length_c                   14.3124
_cell_angle_alpha                90.0
_cell_angle_beta                 109.89819
_cell_angle_gamma                90.0
loop_
_atom_site_label
_atom_site_type_symbol
_atom_site_fract_x
_atom_site_fract_y
_atom_site_fract_z
     1  N          0.25362130       0.76854000       0.45737120
     2  N          0.74637870       0.26854000       0.54262880
     3  H          0.23520000       0.77570000       0.51220000
     4  H          0.76480000       0.27570000       0.48780000
     5  C          0.33517180       0.65036000       0.44365160
     6  C          0.66482820       0.15036000       0.55634840
     7  N          0.33876130       0.69675000       0.35367120
     8  N          0.66123870       0.19675000       0.64632880
     9  C          0.25284160       0.84775000       0.30738130
    10  C          0.74715840       0.34775000       0.69261870
    11  C          0.19917150       0.89374000       0.37142120
    12  C          0.80082850       0.39374000       0.62857880
    13  C          0.40872000       0.48389000       0.51892000
    14  C          0.59128000      -0.01611000       0.48108000
    15  H          0.47170000       0.45580000       0.50230000
    16  H          0.52830000       0.95580000       0.49770000
    17  H          0.37380000       0.32860000       0.51960000
    18  H          0.62620000       0.82860000       0.48040000
    19  H          0.42800000       0.55950000       0.58330000
    20  H          0.57200000       0.05950000       0.41670000
    21  C          0.09830160       0.02774000       0.35994140
    22  C          0.90169840       0.52774000       0.64005860
    23  H          0.08170000       0.13910000       0.30350000
    24  H          0.91830000       0.63910000       0.69650000
    25  H          0.10690000       0.12600000       0.41890000
    26  H          0.89310000       0.62600000       0.58110000
    27  N          0.00847130       0.84714000       0.34451110
    28  N         -0.00847130       0.34714000       0.65548890
    29  H          0.00820000       0.74760000       0.29120000
    30  H         -0.00820000       0.24760000       0.70880000
    31  H          0.02320000       0.75360000       0.40681900
    32  H          0.97680000       0.25360000       0.59318100
    33  C          0.90120840       0.96675000       0.31896130
    34  C          0.09879160       0.46675000       0.68103870
    35  H          0.89630000       0.09950000       0.27090000
    36  H          0.10370000       0.59950000       0.72910000
    37  C          0.88510840       0.07925000       0.41069130
    38  C          0.11489160       0.57925000       0.58930870
    39  O          0.80719860       0.22575000       0.39006110
    40  O          0.19280140       0.72575000       0.60993890
    41  O          0.94440880       0.01583000       0.49437900
    42  O          0.05559120       0.51583000       0.50562100
    43  C          0.81538000       0.77827000       0.27132000
    44  C          0.18462000       0.27827000       0.72868000
    45  H          0.82330000       0.71850000       0.21100000
    46  H          0.17670000       0.21850000       0.78900000
    47  H          0.74660000       0.85400000       0.25640000
    48  H          0.25340000       0.35400000       0.74360000
    49  H          0.82160000       0.64220000       0.31620000
    50  H          0.17840000       0.14220000       0.68380000
    51  C          0.22902180       0.93034000       0.20237130
    52  C          0.77097820       0.43034000       0.79762870
    53  H          0.29120000       0.01130000       0.19590000
    54  H          0.70880000       0.51130000       0.80410000
    55  H          0.17100000       0.04910000       0.18490000
    56  H          0.82900000       0.54910000       0.81510000
    57  N          0.19883140       0.71334000       0.13300110
    58  N          0.80116860       0.21334000       0.86699890
    59  H          0.14220000       0.63860000       0.14011800
    60  H          0.85780000       0.13860000       0.85988200
    61  H          0.25620000       0.60360000       0.14411900
    62  H          0.74380000       0.10360000       0.85588100
    63  C          0.16377160       0.78714000       0.02568120
    64  C          0.83622840       0.28714000       0.97431880
    65  H          0.11670000       0.93130000       0.01640000
    66  H          0.88330000       0.43130000       0.98360000
    67  C          0.10002170       0.57534000       0.96133860
    68  C          0.89997830       0.07534000       0.03866140
    69  O          0.10392160       0.36813000      -0.00159120
    70  O          0.89607840       0.86813000       0.00159120
    71  O          0.04880150       0.63094000       0.87277890
    72  O          0.95119850       0.13094000       0.12722110
    73  C          0.25842000       0.85957000      -0.00444170
    74  C          0.74158000       0.35957000       0.00444170
    75  H          0.29230000       0.00320000       0.03240000
    76  H          0.70770000       0.50320000       0.96760000
    77  H          0.23430000       0.89630000       0.92580000
    78  H          0.76570000       0.39630000       0.07420000
    79  H          0.30840000       0.72500000       0.00940000
    80  H          0.69160000       0.22500000      -0.00940000
    81  H          0.42830000       0.59780000       0.32220000
    82  H          0.57170000       0.09780000       0.67780000
    83  C          0.55873000       0.30711500       0.19533000
    84  C          0.44127000       0.80711500       0.80467000
    85  H          0.55610000       0.35840000       0.13030000
    86  H          0.44390000       0.85840000       0.86970000
    87  H          0.55290000       0.13000000       0.19690000
    88  H          0.44710000       0.63000000       0.80310000
    89  H          0.62520000       0.35840000       0.24350000
    90  H          0.37480000       0.85840000       0.75650000
    91  C          0.46922000       0.42238000       0.21892000
    92  C          0.53078000       0.92238000       0.78108000
    93  O          0.49361160       0.53578000       0.30221160
    94  O          0.50638840       0.03578000       0.69778840
    95  O          0.37846150       0.40445000       0.16188150
    96  O          0.62153850       0.90445000       0.83811850
    97  O          0.01209130       0.59294000       0.17334110
    98  O         -0.01209130       0.09294000       0.82665890
    99  H          0.98470000       0.44980000       0.15220000
   100  H          0.01530000       0.94980000       0.84780000
   101  H          0.97970000       0.68970000       0.12520000
   102  H          0.02030000       0.18970000       0.87480000
