data_FEYSUA
_symmetry_space_group_name_H-M    'P1'
_symmetry_Int_Tables_number       1
loop_
_symmetry_equiv_pos_site_id
_symmetry_equiv_pos_as_xyz
1 x,y,z
_cell_length_a                   9.13454
_cell_length_b                   22.122111
_cell_length_c                   9.37314
_cell_angle_alpha                90.0
_cell_angle_beta                 112.2132
_cell_angle_gamma                90.0
loop_
_atom_site_label
_atom_site_type_symbol
_atom_site_fract_x
_atom_site_fract_y
_atom_site_fract_z
     1  F          0.47522900       0.08597300       0.42322900
     2  F          0.52477100       0.58597300       0.07677100
     3  F          0.52477100       0.91402700       0.57677100
     4  F          0.47522900       0.41402700       0.92322900
     5  O          0.44545100       0.20776400       0.36040900
     6  O          0.55454900       0.70776400       0.13959100
     7  O          0.55454900       0.79223600       0.63959100
     8  O          0.44545100       0.29223600       0.86040900
     9  N          0.50594110       0.25708400       0.58926110
    10  N          0.49405890       0.75708400       0.91073890
    11  N          0.49405890       0.74291600       0.41073890
    12  N          0.50594110       0.24291600       0.08926110
    13  H          0.50970000       0.25340000       0.68410000
    14  H          0.49030000       0.75340000       0.81590000
    15  H          0.49030000       0.74660000       0.31590000
    16  H          0.50970000       0.24660000       0.18410000
    17  C          0.56079130       0.31226500       0.54945130
    18  C          0.43920870       0.81226500       0.95054870
    19  C          0.43920870       0.68773500       0.45054870
    20  C          0.56079130       0.18773500       0.04945130
    21  C          0.64494130       0.31365500       0.45313130
    22  C          0.35505870       0.81365500       0.04686870
    23  C          0.35505870       0.68634500       0.54686870
    24  C          0.64494130       0.18634500       0.95313130
    25  H          0.67240000       0.27710000       0.41640000
    26  H          0.32760000       0.77710000       0.08360000
    27  H          0.32760000       0.72290000       0.58360000
    28  H          0.67240000       0.22290000       0.91640000
    29  C          0.68899130       0.36942500       0.41053140
    30  C          0.31100870       0.86942500       0.08946860
    31  C          0.31100870       0.63057500       0.58946860
    32  C          0.68899130       0.13057500       0.91053140
    33  C          0.65466140       0.42311600       0.47023140
    34  C          0.34533860       0.92311600       0.02976860
    35  C          0.34533860       0.57688400       0.52976860
    36  C          0.65466140       0.07688400       0.97023140
    37  H          0.68400000       0.46100000       0.44110000
    38  H          0.31600000       0.96100000       0.05890000
    39  H          0.31600000       0.53900000       0.55890000
    40  H          0.68400000       0.03900000       0.94110000
    41  C          0.57747140       0.42072500       0.57230140
    42  C          0.42252860       0.92072500       0.92769860
    43  C          0.42252860       0.57927500       0.42769860
    44  C          0.57747140       0.07927500       0.07230140
    45  H          0.55740000       0.45700000       0.61580000
    46  H          0.44260000       0.95700000       0.88420000
    47  H          0.44260000       0.54300000       0.38420000
    48  H          0.55740000       0.04300000       0.11580000
    49  C          0.52925140       0.36574500       0.61151140
    50  C          0.47074860       0.86574500       0.88848860
    51  C          0.47074860       0.63425500       0.38848860
    52  C          0.52925140       0.13425500       0.11151140
    53  H          0.47500000       0.36460000       0.68030000
    54  H          0.52500000       0.86460000       0.81970000
    55  H          0.52500000       0.63540000       0.31970000
    56  H          0.47500000       0.13540000       0.18030000
    57  C          0.38319130       0.15878500       0.55644130
    58  C          0.61680870       0.65878500       0.94355870
    59  C          0.61680870       0.84121500       0.44355870
    60  C          0.38319130       0.34121500       0.05644130
    61  C          0.30326130       0.16899500       0.65459130
    62  C          0.69673870       0.66899500       0.84540870
    63  C          0.69673870       0.83100500       0.34540870
    64  C          0.30326130       0.33100500       0.15459130
    65  H          0.29110000       0.20930000       0.68360000
    66  H          0.70890000       0.70930000       0.81640000
    67  H          0.70890000       0.79070000       0.31640000
    68  H          0.29110000       0.29070000       0.18360000
    69  C          0.24088140       0.12164600       0.71106140
    70  C          0.75911860       0.62164600       0.78893860
    71  C          0.75911860       0.87835400       0.28893860
    72  C          0.24088140       0.37835400       0.21106140
    73  H          0.18620000       0.12960000       0.77740000
    74  H          0.81380000       0.62960000       0.72260000
    75  H          0.81380000       0.87040000       0.22260000
    76  H          0.18620000       0.37040000       0.27740000
    77  C          0.25904140       0.06279600       0.66994150
    78  C          0.74095860       0.56279600       0.83005850
    79  C          0.74095860       0.93720400       0.33005850
    80  C          0.25904140       0.43720400       0.16994150
    81  H          0.21690000       0.03030000       0.70870000
    82  H          0.78310000       0.53030000       0.79130000
    83  H          0.78310000       0.96970000       0.29130000
    84  H          0.21690000       0.46970000       0.20870000
    85  C          0.33848150       0.05089600       0.57241150
    86  C          0.66151850       0.55089600       0.92758850
    87  C          0.66151850       0.94910400       0.42758850
    88  C          0.33848150       0.44910400       0.07241150
    89  H          0.35150000       0.01060000       0.54420000
    90  H          0.64850000       0.51060000       0.95580000
    91  H          0.64850000       0.98940000       0.45580000
    92  H          0.35150000       0.48940000       0.04420000
    93  C          0.39778140       0.09895500       0.51781140
    94  C          0.60221860       0.59895500       0.98218860
    95  C          0.60221860       0.90104500       0.48218860
    96  C          0.39778140       0.40104500       0.01781140
    97  C          0.44830130       0.20971500       0.49257130
    98  C          0.55169870       0.70971500       0.00742870
    99  C          0.55169870       0.79028500       0.50742870
   100  C          0.44830130       0.29028500      -0.00742870
   101  C          0.76700140       0.37090600       0.30159150
   102  C          0.23299860       0.87090600       0.19840850
   103  C          0.23299860       0.62909400       0.69840850
   104  C          0.76700140       0.12909400       0.80159150
   105  C          0.82481170       0.37196700       0.20925170
   106  C          0.17518830       0.87196700       0.29074830
   107  C          0.17518830       0.62803300       0.79074830
   108  C          0.82481170       0.12803300       0.70925170
   109  H          0.87170000       0.37280000       0.13440000
   110  H          0.12830000       0.87280000       0.36560000
   111  H          0.12830000       0.62720000       0.86560000
   112  H          0.87170000       0.12720000       0.63440000
   113  F          0.89820100       0.19655400       0.38437900
   114  F          0.10179900       0.69655400       0.11562100
   115  F          0.10179900       0.80344600       0.61562100
   116  F          0.89820100       0.30344600       0.88437900
   117  F          0.90504900       0.07423400       0.40083900
   118  F          0.09495100       0.57423400       0.09916100
   119  F          0.09495100       0.92576600       0.59916100
   120  F          0.90504900       0.42576600       0.90083900
   121  F          0.03947100       0.00956400       0.23565100
   122  F          0.96052900       0.50956400       0.26434900
   123  F          0.96052900       0.99043600       0.76434900
   124  F          0.03947100       0.49043600       0.73565100
   125  F          0.16667100       0.06759400       0.05378100
   126  F          0.83332900       0.56759400       0.44621900
   127  F          0.83332900       0.93240600       0.94621900
   128  F          0.16667100       0.43240600       0.55378100
   129  F          0.15783900       0.18993400       0.03625900
   130  F          0.84216100       0.68993400       0.46374100
   131  F          0.84216100       0.81006600       0.96374100
   132  F          0.15783900       0.31006600       0.53625900
   133  F          0.02543100       0.25447400       0.20335100
   134  F          0.97456900       0.75447400       0.29664900
   135  F          0.97456900       0.74552600       0.79664900
   136  F          0.02543100       0.24552600       0.70335100
   137  C          0.96491860       0.16484600       0.30382140
   138  C          0.03508140       0.66484600       0.19617860
   139  C          0.03508140       0.83515400       0.69617860
   140  C          0.96491860       0.33515400       0.80382140
   141  C          0.96839860       0.10270600       0.31220140
   142  C          0.03160140       0.60270600       0.18779860
   143  C          0.03160140       0.89729400       0.68779860
   144  C          0.96839860       0.39729400       0.81220140
   145  C          0.03665150       0.06982600       0.22805150
   146  C          0.96334850       0.56982600       0.27194850
   147  C          0.96334850       0.93017400       0.77194850
   148  C          0.03665150       0.43017400       0.72805150
   149  C          0.10090140       0.09929600       0.13571150
   150  C          0.89909860       0.59929600       0.36428850
   151  C          0.89909860       0.90070400       0.86428850
   152  C          0.10090140       0.40070400       0.63571150
   153  C          0.09715140       0.16149600       0.12664140
   154  C          0.90284860       0.66149600       0.37335860
   155  C          0.90284860       0.83850400       0.87335860
   156  C          0.09715140       0.33850400       0.62664140
   157  C          0.02947140       0.19427600       0.21119140
   158  C          0.97052860       0.69427600       0.28880860
   159  C          0.97052860       0.80572400       0.78880860
   160  C          0.02947140       0.30572400       0.71119140
