data_FEYTEL
_symmetry_space_group_name_H-M    'P1'
_symmetry_Int_Tables_number       1
loop_
_symmetry_equiv_pos_site_id
_symmetry_equiv_pos_as_xyz
1 x,y,z
_cell_length_a                   7.36856
_cell_length_b                   26.269019
_cell_length_c                   9.48477
_cell_angle_alpha                90.0
_cell_angle_beta                 99.0075
_cell_angle_gamma                90.0
loop_
_atom_site_label
_atom_site_type_symbol
_atom_site_fract_x
_atom_site_fract_y
_atom_site_fract_z
     1  C          0.47402000       0.31189700       0.61896180
     2  C          0.52598000       0.81189700       0.88103820
     3  C          0.52598000       0.68810300       0.38103820
     4  C          0.47402000       0.18810300       0.11896180
     5  C          0.42922000       0.35439700       0.69375190
     6  C          0.57078000       0.85439700       0.80624810
     7  C          0.57078000       0.64560300       0.30624810
     8  C          0.42922000       0.14560300       0.19375190
     9  H          0.36180000       0.35020000       0.77050000
    10  H          0.63820000       0.85020000       0.72950000
    11  H          0.63820000       0.64980000       0.22950000
    12  H          0.36180000       0.14980000       0.27050000
    13  C          0.48192000       0.40324700       0.65762000
    14  C          0.51808000       0.90324700       0.84238000
    15  C          0.51808000       0.59675300       0.34238000
    16  C          0.48192000       0.09675300       0.15762000
    17  C          0.57993000       0.40933800       0.54312000
    18  C          0.42007000       0.90933800       0.95688000
    19  C          0.42007000       0.59066200       0.45688000
    20  C          0.57993000       0.09066200       0.04312000
    21  H          0.61470000       0.44230000       0.51600000
    22  H          0.38530000       0.94230000       0.98400000
    23  H          0.38530000       0.55770000       0.48400000
    24  H          0.61470000       0.05770000       0.01600000
    25  C          0.62543000       0.36667700       0.47022000
    26  C          0.37457000       0.86667700       0.02978000
    27  C          0.37457000       0.63332300       0.52978000
    28  C          0.62543000       0.13332300       0.97022000
    29  H          0.69280000       0.37080000       0.39340000
    30  H          0.30720000       0.87080000       0.10660000
    31  H          0.30720000       0.62920000       0.60660000
    32  H          0.69280000       0.12920000       0.89340000
    33  C          0.57492000       0.31812700       0.50673190
    34  C          0.42508000       0.81812700      -0.00673190
    35  C          0.42508000       0.68187300       0.49326810
    36  C          0.57492000       0.18187300       0.00673190
    37  H          0.60850000       0.28930000       0.45600000
    38  H          0.39150000       0.78930000       0.04400000
    39  H          0.39150000       0.71070000       0.54400000
    40  H          0.60850000       0.21070000       0.95600000
    41  C          0.30002000       0.17788700       0.65595180
    42  C          0.69998000       0.67788700       0.84404820
    43  C          0.69998000       0.82211300       0.34404820
    44  C          0.30002000       0.32211300       0.15595180
    45  C          0.32902000       0.12908700       0.60619190
    46  C          0.67098000       0.62908700       0.89380810
    47  C          0.67098000       0.87091300       0.39380810
    48  C          0.32902000       0.37091300       0.10619190
    49  H          0.39200000       0.12500000       0.52680000
    50  H          0.60800000       0.62500000       0.97320000
    51  H          0.60800000       0.87500000       0.47320000
    52  H          0.39200000       0.37500000       0.02680000
    53  C          0.26783000       0.08644700       0.67023190
    54  C          0.73217000       0.58644700       0.82976810
    55  C          0.73217000       0.91355300       0.32976810
    56  C          0.26783000       0.41355300       0.17023190
    57  H          0.28910000       0.05330000       0.63610000
    58  H          0.71090000       0.55330000       0.86390000
    59  H          0.71090000       0.94670000       0.36390000
    60  H          0.28910000       0.44670000       0.13610000
    61  C          0.17422000       0.09303700       0.78588190
    62  C          0.82578000       0.59303700       0.71411810
    63  C          0.82578000       0.90696300       0.21411810
    64  C          0.17422000       0.40696300       0.28588190
    65  C          0.13932000       0.14114700       0.83572190
    66  C          0.86068000       0.64114700       0.66427810
    67  C          0.86068000       0.85885300       0.16427810
    68  C          0.13932000       0.35885300       0.33572190
    69  H          0.07230000       0.14500000       0.91280000
    70  H          0.92770000       0.64500000       0.58720000
    71  H          0.92770000       0.85500000       0.08720000
    72  H          0.07230000       0.35500000       0.41280000
    73  C          0.20342000       0.18337700       0.77170180
    74  C          0.79658000       0.68337700       0.72829820
    75  C          0.79658000       0.81662300       0.22829820
    76  C          0.20342000       0.31662300       0.27170180
    77  H          0.18200000       0.21640000       0.80630000
    78  H          0.81800000       0.71640000       0.69370000
    79  H          0.81800000       0.78360000       0.19370000
    80  H          0.18200000       0.28360000       0.30630000
    81  C          0.37192000       0.22218700       0.58321190
    82  C          0.62808000       0.72218700       0.91678810
    83  C          0.62808000       0.77781300       0.41678810
    84  C          0.37192000       0.27781300       0.08321190
    85  C          0.43363000       0.44649800       0.73932000
    86  C          0.56637000       0.94649800       0.76068000
    87  C          0.56637000       0.55350200       0.26068000
    88  C          0.43363000       0.05350200       0.23932000
    89  C          0.39053000       0.48017900       0.80693000
    90  C          0.60947000       0.98017900       0.69307000
    91  C          0.60947000       0.51982100       0.19307000
    92  C          0.39053000       0.01982100       0.30693000
    93  H          0.35540000       0.50760000       0.86190000
    94  H          0.64460000       0.00760000       0.63810000
    95  H          0.64460000       0.49240000       0.13810000
    96  H          0.35540000       0.99240000       0.36190000
    97  Br         0.08936300       0.03515200       0.87408200
    98  Br         0.91063700       0.53515200       0.62591800
    99  Br         0.91063700       0.96484800       0.12591800
   100  Br         0.08936300       0.46484800       0.37408200
   101  O          0.39035190       0.21895500       0.45572120
   102  O          0.60964810       0.71895500       0.04427880
   103  O          0.60964810       0.78104500       0.54427880
   104  O          0.39035190       0.28104500       0.95572120
   105  N          0.41562000       0.26410600       0.66343150
   106  N          0.58438000       0.76410600       0.83656850
   107  N          0.58438000       0.73589400       0.33656850
   108  N          0.41562000       0.23589400       0.16343150
   109  H          0.40660000       0.26140000       0.75450000
   110  H          0.59340000       0.76140000       0.74550000
   111  H          0.59340000       0.73860000       0.24550000
   112  H          0.40660000       0.23860000       0.25450000
   113  C          0.94812000       0.32983800       0.79667190
   114  C          0.05188000       0.82983800       0.70332810
   115  C          0.05188000       0.67016200       0.20332810
   116  C          0.94812000       0.17016200       0.29667190
   117  C          0.89052000       0.30258700       0.90512000
   118  C          0.10948000       0.80258700       0.59488000
   119  C          0.10948000       0.69741300       0.09488000
   120  C          0.89052000       0.19741300       0.40512000
   121  C          0.82642000       0.32735700       0.01591190
   122  C          0.17358000       0.82735700       0.48408810
   123  C          0.17358000       0.67264300       0.98408810
   124  C          0.82642000       0.17264300       0.51591190
   125  C          0.82053000       0.37986800       0.01712000
   126  C          0.17947000       0.87986800       0.48288000
   127  C          0.17947000       0.62013200       0.98288000
   128  C          0.82053000       0.12013200       0.51712000
   129  C          0.88073000       0.40722700       0.90912000
   130  C          0.11927000       0.90722700       0.59088000
   131  C          0.11927000       0.59277300       0.09088000
   132  C          0.88073000       0.09277300       0.40912000
   133  C          0.94443000       0.38239800       0.79832000
   134  C          0.05557000       0.88239800       0.70168000
   135  C          0.05557000       0.61760200       0.20168000
   136  C          0.94443000       0.11760200       0.29832000
   137  F          0.01089150       0.30539500       0.68994110
   138  F         -0.01089150       0.80539500       0.81005890
   139  F         -0.01089150       0.69460500       0.31005890
   140  F          0.01089150       0.19460500       0.18994110
   141  F          0.90011150       0.25161400       0.90526130
   142  F          0.09988850       0.75161400       0.59473870
   143  F          0.09988850       0.74838600       0.09473870
   144  F          0.90011150       0.24838600       0.40526130
   145  F          0.77352150       0.30088400       0.12298110
   146  F          0.22647850       0.80088400       0.37701890
   147  F          0.22647850       0.69911600       0.87701890
   148  F          0.77352150       0.19911600       0.62298110
   149  F          0.75837160       0.40413400       0.12400120
   150  F          0.24162840       0.90413400       0.37599880
   151  F          0.24162840       0.59586600       0.87599880
   152  F          0.75837160       0.09586600       0.62400120
   153  F          0.87879180       0.45811400       0.91413140
   154  F          0.12120820       0.95811400       0.58586860
   155  F          0.12120820       0.54188600       0.08586860
   156  F          0.87879180       0.04188600       0.41413140
   157  F          0.00257160       0.40858500       0.69352120
   158  F         -0.00257160       0.90858500       0.80647880
   159  F         -0.00257160       0.59141500       0.30647880
   160  F          0.00257160       0.09141500       0.19352120
