data_FIBHUV
_symmetry_space_group_name_H-M    'P1'
_symmetry_Int_Tables_number       1
loop_
_symmetry_equiv_pos_site_id
_symmetry_equiv_pos_as_xyz
1 x,y,z
_cell_length_a                   8.687017
_cell_length_b                   8.900018
_cell_length_c                   13.0393
_cell_angle_alpha                104.063
_cell_angle_beta                 97.673
_cell_angle_gamma                105.153
loop_
_atom_site_label
_atom_site_type_symbol
_atom_site_fract_x
_atom_site_fract_y
_atom_site_fract_z
     1  N          0.90815000       0.05705000       0.84493000
     2  N          0.09185000       0.94295000       0.15507000
     3  H          0.95950000       0.06970000       0.79410000
     4  H          0.04050000       0.93030000       0.20590000
     5  Cl         0.31988000       0.52672820       0.06801130
     6  Cl         0.68012000       0.47327180       0.93198870
     7  C          0.56284000       0.86014000       0.10214000
     8  C          0.43716000       0.13986000       0.89786000
     9  H          0.54090000       0.76910000       0.04290000
    10  H          0.45910000       0.23090000       0.95710000
    11  C          0.66904000      -0.00526000       0.09914000
    12  C          0.33096000       0.00526000       0.90086000
    13  H          0.69440000       0.08560000       0.15890000
    14  H          0.30560000       0.91440000       0.84110000
    15  C          0.47605000       0.83964000       0.18904000
    16  C          0.52395000       0.16036000       0.81096000
    17  C          0.36284000       0.69254000       0.18304000
    18  C          0.63716000       0.30746000       0.81696000
    19  C          0.28064000       0.67293000       0.26444000
    20  C          0.71936000       0.32707000       0.73556000
    21  H          0.20790000       0.57240000       0.25850000
    22  H          0.79210000       0.42760000       0.74150000
    23  C          0.30583000       0.80123000       0.35374000
    24  C          0.69417000       0.19877000       0.64626000
    25  H          0.25100000       0.78820000       0.40900000
    26  H          0.74900000       0.21180000       0.59100000
    27  C          0.41343000       0.95083000       0.36164000
    28  C          0.58657000       0.04917000       0.63836000
    29  H          0.42810000       0.03950000       0.42110000
    30  H          0.57190000       0.96050000       0.57890000
    31  C          0.49914000       0.96854000       0.28124000
    32  C          0.50086000       0.03146000       0.71876000
    33  H          0.57400000       0.06880000       0.28860000
    34  H          0.42600000       0.93120000       0.71140000
    35  C          0.75015000       0.01336000       0.00983000
    36  C          0.24985000      -0.01336000      -0.00983000
    37  C          0.71254000       0.89274000       0.91214000
    38  C          0.28746000       0.10726000       0.08786000
    39  H          0.63240000       0.79480000       0.90170000
    40  H          0.36760000       0.20520000       0.09830000
    41  C          0.79224000       0.91634000       0.83064000
    42  C          0.20776000       0.08366000       0.16936000
    43  H          0.76580000       0.83470000       0.76540000
    44  H          0.23420000       0.16530000       0.23460000
    45  C          0.94534000       0.17727000       0.93634000
    46  C          0.05466000       0.82273000       0.06366000
    47  H          0.02400000       0.27480000       0.94320000
    48  H         -0.02400000       0.72520000       0.05680000
    49  C          0.87024000       0.16006000       0.02044000
    50  C          0.12976000       0.83994000       0.97956000
    51  H          0.89850000       0.24490000       0.08420000
    52  H          0.10150000       0.75510000       0.91580000
    53  O          0.35815000       0.58795000       0.75683000
    54  O          0.64185000       0.41205000       0.24317000
    55  H          0.26780000       0.48290000       0.77290000
    56  H          0.73220000       0.51710000       0.22710000
    57  O          0.51216000       0.64835000       0.64284000
    58  O          0.48784000       0.35165000       0.35716000
    59  O          0.16685000       0.34094000       0.77363000
    60  O          0.83315000       0.65906000       0.22637000
    61  O          0.06914000       0.08144000       0.68503000
    62  O          0.93086000       0.91856000       0.31497000
    63  C          0.25286000       0.24416000       0.61014000
    64  C          0.74714000       0.75584000       0.38986000
    65  H          0.23720000       0.14910000       0.55530000
    66  H          0.76280000       0.85090000       0.44470000
    67  C          0.35596000       0.37686000       0.59984000
    68  C          0.64404000       0.62314000       0.40016000
    69  H          0.39960000       0.35900000       0.53820000
    70  H          0.60040000       0.64100000       0.46180000
    71  C          0.41317000       0.54647000       0.66855000
    72  C          0.58683000       0.45353000       0.33145000
    73  C          0.15846000       0.22446000       0.69584000
    74  C          0.84154000       0.77554000       0.30416000
    75  O          0.92616000       0.19924000       0.43123000
    76  O          0.07384000       0.80076000       0.56877000
    77  H          0.92190000       0.09410000       0.39050000
    78  H          0.07810000       0.90590000       0.60950000
    79  O          0.00555000       0.28114000       0.29313000
    80  O         -0.00555000       0.71886000       0.70687000
    81  C          0.00066000       0.47866000       0.44854000
    82  C         -0.00066000       0.52134000       0.55146000
    83  H          0.01690000       0.55970000       0.41410000
    84  H         -0.01690000       0.44030000       0.58590000
    85  C         -0.02206000       0.31116000       0.38274000
    86  C          0.02206000       0.68884000       0.61726000
