data_FICBIE
_symmetry_space_group_name_H-M    'P1'
_symmetry_Int_Tables_number       1
loop_
_symmetry_equiv_pos_site_id
_symmetry_equiv_pos_as_xyz
1 x,y,z
_cell_length_a                   15.2182
_cell_length_b                   7.2354
_cell_length_c                   21.2823
_cell_angle_alpha                90.0
_cell_angle_beta                 95.0684
_cell_angle_gamma                90.0
loop_
_atom_site_label
_atom_site_type_symbol
_atom_site_fract_x
_atom_site_fract_y
_atom_site_fract_z
     1  S          0.79712300       0.52211300       0.36091200
     2  S          0.70287700       0.02211300       0.13908800
     3  S          0.20287700       0.47788700       0.63908800
     4  S          0.29712300       0.97788700       0.86091200
     5  N          0.76119900       0.84557000       0.30180700
     6  N          0.73880100       0.34557000       0.19819300
     7  N          0.23880100       0.15443000       0.69819300
     8  N          0.26119900       0.65443000       0.80180700
     9  H          0.73450000       0.95000000       0.29660000
    10  H          0.76550000       0.45000000       0.20340000
    11  H          0.26550000       0.05000000       0.70340000
    12  H          0.23450000       0.55000000       0.79660000
    13  H          0.79880000       0.81190000       0.27620000
    14  H          0.70120000       0.31190000       0.22380000
    15  H          0.20120000       0.18810000       0.72380000
    16  H          0.29880000       0.68810000       0.77620000
    17  C          0.74422110       0.73577000       0.34983800
    18  C          0.75577890       0.23577000       0.15016200
    19  C          0.25577890       0.26423000       0.65016200
    20  C          0.24422110       0.76423000       0.84983800
    21  N          0.68747900       0.77848000       0.39091700
    22  N          0.81252100       0.27848000       0.10908300
    23  N          0.31252100       0.22152000       0.60908300
    24  N          0.18747900       0.72152000       0.89091700
    25  C          0.68232110       0.63467000       0.43470800
    26  C          0.81767890       0.13467000       0.06529200
    27  C          0.31767890       0.36533000       0.56529200
    28  C          0.18232110       0.86533000       0.93470800
    29  C          0.62817120       0.63597000       0.48495800
    30  C          0.87182880       0.13597000       0.01504200
    31  C          0.37182880       0.36403000       0.51504200
    32  C          0.12817120       0.86403000       0.98495800
    33  C          0.68201140       0.32557000       0.51212100
    34  C          0.81798860       0.82557000       0.98787900
    35  C          0.31798860       0.67443000       0.48787900
    36  C          0.18201140       0.17443000       0.01212100
    37  H          0.68060000       0.22320000       0.53840000
    38  H          0.81940000       0.72320000       0.96160000
    39  H          0.31940000       0.77680000       0.46160000
    40  H          0.18060000       0.27680000       0.03840000
    41  C          0.73575120       0.48147000       0.42509900
    42  C          0.76424880      -0.01853000       0.07490100
    43  C          0.26424880       0.51853000       0.57490100
    44  C          0.23575120       0.01853000       0.92509900
    45  C          0.73601130       0.32477000       0.46312100
    46  C          0.76398870       0.82477000       0.03687900
    47  C          0.26398870       0.67523000       0.53687900
    48  C          0.23601130       0.17523000       0.96312100
    49  H          0.77120000       0.22330000       0.45580000
    50  H          0.72880000       0.72330000       0.04420000
    51  H          0.22880000       0.77670000       0.54420000
    52  H          0.27120000       0.27670000       0.95580000
    53  C          0.57155130       0.80027000       0.49640900
    54  C          0.92844870       0.30027000       0.00359100
    55  C          0.42844870       0.19973000       0.50359100
    56  C          0.07155130       0.69973000      -0.00359100
    57  H          0.60760000       0.90940000       0.50020000
    58  H          0.89240000       0.40940000      -0.00020000
    59  H          0.39240000       0.09060000       0.49980000
    60  H          0.10760000       0.59060000       0.00020000
    61  H          0.54350000       0.78220000       0.53460000
    62  H          0.95650000       0.28220000       0.96540000
    63  H          0.45650000       0.21780000       0.46540000
    64  H          0.04350000       0.71780000       0.03460000
    65  H          0.52730000       0.81450000       0.46170000
    66  H          0.97270000       0.31450000       0.03830000
    67  H          0.47270000       0.18550000       0.53830000
    68  H          0.02730000       0.68550000       0.96170000
    69  C          0.62958130       0.47927000       0.52238100
    70  C          0.87041870       0.97927000       0.97761900
    71  C          0.37041870       0.52073000       0.47761900
    72  C          0.12958130       0.02073000       0.02238100
    73  H          0.59410000       0.47630000       0.55580000
    74  H          0.90590000       0.97630000       0.94420000
    75  H          0.40590000       0.52370000       0.44420000
    76  H          0.09410000       0.02370000       0.05580000
    77  S          0.24036300       0.59273800       0.14153200
    78  S          0.25963700       0.09273800       0.35846800
    79  S          0.75963700       0.40726200       0.85846800
    80  S          0.74036300       0.90726200       0.64153200
    81  N          0.37418900       0.36602000       0.14513700
    82  N          0.12581100       0.86602000       0.35486300
    83  N          0.62581100       0.63398000       0.85486300
    84  N          0.87418900       0.13398000       0.64513700
    85  C          0.47962120       0.54983000       0.08702800
    86  C          0.02037880       0.04983000       0.41297200
    87  C          0.52037880       0.45017000       0.91297200
    88  C          0.97962120       0.95017000       0.58702800
    89  C          0.29425120       0.38583000       0.16329900
    90  C          0.20574880       0.88583000       0.33670100
    91  C          0.70574880       0.61417000       0.83670100
    92  C          0.79425120       0.11417000       0.66329900
    93  N          0.25302100       0.25673000       0.19534800
    94  N          0.24697900       0.75673000       0.30465200
    95  N          0.74697900       0.74327000       0.80465200
    96  N          0.75302100       0.24327000       0.69534800
    97  H          0.27900000       0.15380000       0.20520000
    98  H          0.22100000       0.65380000       0.29480000
    99  H          0.72100000       0.84620000       0.79480000
   100  H          0.77900000       0.34620000       0.70520000
   101  H          0.20070000       0.27710000       0.20600000
   102  H          0.29930000       0.77710000       0.29400000
   103  H          0.79930000       0.72290000       0.79400000
   104  H          0.70070000       0.22290000       0.70600000
   105  C          0.39757120       0.52253000       0.11183800
   106  C          0.10242880       0.02253000       0.38816200
   107  C          0.60242880       0.47747000       0.88816200
   108  C          0.89757120       0.97747000       0.61183800
   109  C          0.33395120       0.66193000       0.10565900
   110  C          0.16604880       0.16193000       0.39434100
   111  C          0.66604880       0.33807000       0.89434100
   112  C          0.83395120       0.83807000       0.60565900
   113  C          0.49220130       0.71793000       0.05808900
   114  C          0.00779870       0.21793000       0.44191100
   115  C          0.50779870       0.28207000       0.94191100
   116  C         -0.00779870       0.78207000       0.55808900
   117  H          0.54570000       0.73930000       0.04140000
   118  H          0.95430000       0.23930000       0.45860000
   119  H          0.45430000       0.26070000       0.95860000
   120  H          0.04570000       0.76070000       0.54140000
   121  C          0.55040120       0.40433000       0.09373900
   122  C          0.94959880       0.90433000       0.40626100
   123  C          0.44959880       0.59567000       0.90626100
   124  C          0.05040120       0.09567000       0.59373900
   125  H          0.52480000       0.28540000       0.08380000
   126  H          0.97520000       0.78540000       0.41620000
   127  H          0.47520000       0.71460000       0.91620000
   128  H          0.02480000       0.21460000       0.58380000
   129  H          0.57710000       0.40370000       0.13630000
   130  H          0.92290000       0.90370000       0.36370000
   131  H          0.42290000       0.59630000       0.86370000
   132  H          0.07710000       0.09630000       0.63630000
   133  H          0.59440000       0.43100000       0.06540000
   134  H          0.90560000       0.93100000       0.43460000
   135  H          0.40560000       0.56900000       0.93460000
   136  H          0.09440000       0.06900000       0.56540000
   137  C          0.34763130       0.82953000       0.07614900
   138  C          0.15236870       0.32953000       0.42385100
   139  C          0.65236870       0.17047000       0.92385100
   140  C          0.84763130       0.67047000       0.57614900
   141  H          0.30400000       0.91980000       0.07230000
   142  H          0.19600000       0.41980000       0.42770000
   143  H          0.69600000       0.08020000       0.92770000
   144  H          0.80400000       0.58020000       0.57230000
   145  C          0.42821140       0.85703000       0.05275100
   146  C          0.07178860       0.35703000       0.44724900
   147  C          0.57178860       0.14297000       0.94724900
   148  C          0.92821140       0.64297000       0.55275100
   149  H          0.44000000       0.96840000       0.03340000
   150  H          0.06000000       0.46840000       0.46660000
   151  H          0.56000000       0.03160000       0.96660000
   152  H          0.94000000       0.53160000       0.53340000
   153  O          0.48283800       0.09312000       0.18963700
   154  O          0.01716200       0.59312000       0.31036300
   155  O          0.51716200       0.90688000       0.81036300
   156  O          0.98283800       0.40688000       0.68963700
   157  H          0.44530000       0.17300000       0.18160000
   158  H          0.05470000       0.67300000       0.31840000
   159  H          0.55470000       0.82700000       0.81840000
   160  H          0.94530000       0.32700000       0.68160000
   161  O          0.65208800       0.17311190       0.30118600
   162  O          0.84791200       0.67311190       0.19881400
   163  O          0.34791200       0.82688810       0.69881400
   164  O          0.15208800       0.32688810       0.80118600
   165  O          0.37570900       0.96512000       0.23992700
   166  O          0.12429100       0.46512000       0.26007300
   167  O          0.62429100       0.03488000       0.76007300
   168  O          0.87570900       0.53488000       0.73992700
   169  C          0.48272120       0.65343000       0.27896900
   170  C          0.01727880       0.15343000       0.22103100
   171  C          0.51727880       0.34657000       0.72103100
   172  C          0.98272120       0.84657000       0.77896900
   173  H          0.42420000       0.61060000       0.26380000
   174  H          0.07580000       0.11060000       0.23620000
   175  H          0.57580000       0.38940000       0.73620000
   176  H          0.92420000       0.88940000       0.76380000
   177  H          0.47960000       0.70490000       0.32080000
   178  H          0.02040000       0.20490000       0.17920000
   179  H          0.52040000       0.29510000       0.67920000
   180  H          0.97960000       0.79510000       0.82080000
   181  C          0.58924110       0.18483000       0.33332800
   182  C          0.91075890       0.68483000       0.16667200
   183  C          0.41075890       0.81517000       0.66667200
   184  C          0.08924110       0.31517000       0.83332800
   185  C          0.54666110       0.49113000       0.28249800
   186  C          0.95333890      -0.00887000       0.21750200
   187  C          0.45333890       0.50887000       0.71750200
   188  C          0.04666110       0.00887000       0.78249800
   189  H          0.54530000       0.43390000       0.24120000
   190  H          0.95470000       0.93390000       0.25880000
   191  H          0.45470000       0.56610000       0.75880000
   192  H          0.04530000       0.06610000       0.74120000
   193  H          0.60590000       0.53750000       0.29310000
   194  H          0.89410000       0.03750000       0.20690000
   195  H          0.39410000       0.46250000       0.70690000
   196  H          0.10590000       0.96250000       0.79310000
   197  C          0.51223110       0.80223000       0.23499900
   198  C          0.98776890       0.30223000       0.26500100
   199  C          0.48776890       0.19777000       0.76500100
   200  C          0.01223110       0.69777000       0.73499900
   201  H          0.56820000       0.85130000       0.25290000
   202  H          0.93180000       0.35130000       0.24710000
   203  H          0.43180000       0.14870000       0.74710000
   204  H          0.06820000       0.64870000       0.75290000
   205  H          0.52230000       0.74490000       0.19510000
   206  H          0.97770000       0.24490000       0.30490000
   207  H          0.47770000       0.25510000       0.80490000
   208  H          0.02230000       0.75510000       0.69510000
   209  C          0.44971120       0.96003000       0.22220800
   210  C          0.05028880       0.46003000       0.27779200
   211  C          0.55028880       0.03997000       0.77779200
   212  C          0.94971120       0.53997000       0.72220800
   213  C          0.52674120       0.34473000       0.33051900
   214  C          0.97325880       0.84473000       0.16948100
   215  C          0.47325880       0.65527000       0.66948100
   216  C          0.02674120       0.15527000       0.83051900
   217  H          0.52870000       0.40150000       0.37190000
   218  H          0.97130000       0.90150000       0.12810000
   219  H          0.47130000       0.59850000       0.62810000
   220  H          0.02870000       0.09850000       0.87190000
   221  H          0.46730000       0.29900000       0.32020000
   222  H          0.03270000       0.79900000       0.17980000
   223  H          0.53270000       0.70100000       0.67980000
   224  H          0.96730000       0.20100000       0.82020000
   225  O          0.57097800       0.05762000       0.37404600
   226  O          0.92902200       0.55762000       0.12595400
   227  O          0.42902200       0.94238000       0.62595400
   228  O          0.07097800       0.44238000       0.87404600
   229  H          0.60820000       0.97550000       0.37470000
   230  H          0.89180000       0.47550000       0.12530000
   231  H          0.39180000       0.02450000       0.62530000
   232  H          0.10820000       0.52450000       0.87470000
