data_FIDBOM
_symmetry_space_group_name_H-M    'P1'
_symmetry_Int_Tables_number       1
loop_
_symmetry_equiv_pos_site_id
_symmetry_equiv_pos_as_xyz
1 x,y,z
_cell_length_a                   6.91686
_cell_length_b                   11.14518
_cell_length_c                   14.165411
_cell_angle_alpha                92.3383
_cell_angle_beta                 90.7053
_cell_angle_gamma                93.2583
loop_
_atom_site_label
_atom_site_type_symbol
_atom_site_fract_x
_atom_site_fract_y
_atom_site_fract_z
     1  Br         0.24905110       0.01836600       0.73123500
     2  Br         0.75094890       0.98163400       0.26876500
     3  Br         0.23879900       0.85036600       0.85193500
     4  Br         0.76120100       0.14963400       0.14806500
     5  Br         0.22774110       0.69421600       0.97521500
     6  Br         0.77225890       0.30578400       0.02478500
     7  Br         0.25891100       0.17260600       0.94355500
     8  Br         0.74108900       0.82739400       0.05644500
     9  C          0.26339000       0.20316000       0.07345000
    10  C          0.73661000       0.79684000       0.92655000
    11  C          0.26441100       0.16546000       0.23105000
    12  C          0.73558900       0.83454000       0.76895000
    13  H          0.38120000       0.14200000       0.26520000
    14  H          0.61880000       0.85800000       0.73480000
    15  H          0.14780000       0.13900000       0.26610000
    16  H          0.85220000       0.86100000       0.73390000
    17  C          0.27171200       0.30246000       0.21685000
    18  C          0.72828800       0.69754000       0.78315000
    19  H          0.15690000       0.33910000       0.24420000
    20  H          0.84310000       0.66090000       0.75580000
    21  H          0.39030000       0.34270000       0.24600000
    22  H          0.60970000       0.65730000       0.75400000
    23  C          0.25121200       0.98516000       0.11405000
    24  C          0.74878800       0.01484000       0.88595000
    25  H          0.24880000       0.96760000       0.04560000
    26  H          0.75120000       0.03240000       0.95440000
    27  H          0.13460000       0.94800000       0.14180000
    28  H          0.86540000       0.05200000       0.85820000
    29  H          0.36620000       0.95250000       0.14200000
    30  H          0.63380000       0.04750000       0.85800000
    31  C          0.27681100       0.42586000       0.06905000
    32  C          0.72318900       0.57414000       0.93095000
    33  H          0.27200000       0.41260000       0.00020000
    34  H          0.72800000       0.58740000      -0.00020000
    35  H          0.39640000       0.47270000       0.08760000
    36  H          0.60360000       0.52730000       0.91240000
    37  H          0.16490000       0.46990000       0.08930000
    38  H          0.83510000       0.53010000       0.91070000
    39  N          0.25719000       0.11455000       0.13254000
    40  N          0.74281000       0.88545000       0.86746000
    41  N          0.27269000       0.31035000       0.11364000
    42  N          0.72731000       0.68965000       0.88636000
    43  Br         0.26031100       0.51526600       0.42468500
    44  Br         0.73968900       0.48473400       0.57531500
    45  C          0.25169000       0.68216000       0.42675000
    46  C          0.74831000       0.31784000       0.57325000
    47  C          0.23781100       0.87506000       0.48565000
    48  C          0.76218900       0.12494000       0.51435000
    49  H          0.35420000       0.91740000       0.51530000
    50  H          0.64580000       0.08260000       0.48470000
    51  H          0.12080000       0.91370000       0.50840000
    52  H          0.87920000       0.08630000       0.49160000
    53  C          0.24831100       0.87376000       0.37745000
    54  C          0.75168900       0.12624000       0.62255000
    55  H          0.12820000       0.90220000       0.34940000
    56  H          0.87180000       0.09780000       0.65060000
    57  H          0.36040000       0.92480000       0.35670000
    58  H          0.63960000       0.07520000       0.64330000
    59  C          0.22301100       0.70527000       0.60145000
    60  C          0.77698900       0.29473000       0.39855000
    61  H          0.19330000       0.61810000       0.60020000
    62  H          0.80670000       0.38190000       0.39980000
    63  H          0.12270000       0.74610000       0.63640000
    64  H          0.87730000       0.25390000       0.36360000
    65  H          0.34910000       0.72390000       0.63250000
    66  H          0.65090000       0.27610000       0.36750000
    67  C          0.28551300       0.70378000       0.25305000
    68  C          0.71448700       0.29622000       0.74695000
    69  H          0.30860000       0.61770000       0.25050000
    70  H          0.69140000       0.38230000       0.74950000
    71  H          0.39320000       0.74820000       0.22330000
    72  H          0.60680000       0.25180000       0.77670000
    73  H          0.16460000       0.71670000       0.21910000
    74  H          0.83540000       0.28330000       0.78090000
    75  N          0.27098000       0.74625000       0.35134000
    76  N          0.72902000       0.25375000       0.64866000
    77  N          0.22898000       0.74605000       0.50494000
    78  N          0.77102000       0.25395000       0.49506000
    79  Br         0.26942100       0.21548600       0.47716500
    80  Br         0.73057900       0.78451400       0.52283500
    81  Br         0.23644900       0.34070600       0.64063500
    82  Br         0.76355100       0.65929400       0.35936500
    83  Br         0.21557110       0.46968700       0.78551500
    84  Br         0.78442890       0.53031300       0.21448500
