data_FIHSOF
_symmetry_space_group_name_H-M    'P1'
_symmetry_Int_Tables_number       1
loop_
_symmetry_equiv_pos_site_id
_symmetry_equiv_pos_as_xyz
1 x,y,z
_cell_length_a                   5.92341
_cell_length_b                   10.559018
_cell_length_c                   11.249719
_cell_angle_alpha                67.0953
_cell_angle_beta                 85.5703
_cell_angle_gamma                79.7563
loop_
_atom_site_label
_atom_site_type_symbol
_atom_site_fract_x
_atom_site_fract_y
_atom_site_fract_z
     1  Br         0.97901000       0.66861000       0.17851000
     2  Br         0.02099000       0.33139000       0.82149000
     3  Br         0.61731000       0.46601000       0.31851000
     4  Br         0.38269000       0.53399000       0.68149000
     5  C          0.95741000       0.51496000       0.44546000
     6  C          0.04259000       0.48504000       0.55454000
     7  C          0.86659000       0.54796000       0.33405000
     8  C          0.13341000       0.45204000       0.66595000
     9  C          0.58911100       0.82727000       0.67437000
    10  C          0.41088900       0.17273000       0.32563000
    11  N          0.12639000       0.85035000       0.90834000
    12  N          0.87361000       0.14965000       0.09166000
    13  C          0.98049000       0.95546000       0.82885000
    14  C          0.01951000       0.04454000       0.17115000
    15  C          0.03281100       0.01986000       0.69365000
    16  C          0.96718900       0.98014000       0.30635000
    17  C          0.48621200       0.69937000       0.93686000
    18  C          0.51378800       0.30063000       0.06314000
    19  C          0.76978900       0.00467000       0.87536000
    20  C          0.23021100      -0.00467000       0.12464000
    21  N          0.22869000       0.97855000       0.64334000
    22  N          0.77131000       0.02145000       0.35666000
    23  C          0.32301000       0.80816000       0.85835000
    24  C          0.67699000       0.19184000       0.14165000
    25  C          0.61638700       0.10788000       0.79567000
    26  C          0.38361300       0.89212000       0.20433000
    27  C          0.68521200       0.65817000       0.88707000
    28  C          0.31478800       0.34183000       0.11293000
    29  C          0.37421000       0.87526000       0.72225000
    30  C          0.62579000       0.12474000       0.27775000
    31  C          0.66758800       0.17097000       0.66077000
    32  C          0.33241200       0.82903000       0.33923000
    33  C          0.86978800       0.12867000       0.61256000
    34  C          0.13021200       0.87133000       0.38744000
    35  C          0.73771200       0.72257000       0.75587000
    36  C          0.26228800       0.27743000       0.24413000
    37  H          0.62660000       0.86790000       0.58730000
    38  H          0.37340000       0.13210000       0.41270000
    39  H          0.45560000       0.65550000       0.02440000
    40  H          0.54440000       0.34450000       0.97560000
    41  H          0.73520000       0.96520000       0.96290000
    42  H          0.26480000       0.03480000       0.03710000
    43  H          0.47750000       0.13790000       0.82840000
    44  H          0.52250000       0.86210000       0.17160000
    45  H          0.79010000       0.58540000       0.94040000
    46  H          0.20990000       0.41460000       0.05960000
    47  H          0.56120000       0.24120000       0.60600000
    48  H          0.43880000       0.75880000       0.39400000
    49  H          0.90250000       0.17140000       0.52510000
    50  H          0.09750000       0.82860000       0.47490000
    51  H          0.87780000       0.69260000       0.72400000
    52  H          0.12220000       0.30740000       0.27600000
