data_FIKTOL
_symmetry_space_group_name_H-M    'P1'
_symmetry_Int_Tables_number       1
loop_
_symmetry_equiv_pos_site_id
_symmetry_equiv_pos_as_xyz
1 x,y,z
_cell_length_a                   9.715201
_cell_length_b                   10.25042
_cell_length_c                   11.90062
_cell_angle_alpha                115.20701
_cell_angle_beta                 94.61801
_cell_angle_gamma                111.66601
loop_
_atom_site_label
_atom_site_type_symbol
_atom_site_fract_x
_atom_site_fract_y
_atom_site_fract_z
     1  Cl         0.80030300       0.83219300       0.41211200
     2  Cl         0.19969700       0.16780700       0.58788800
     3  Cl         0.54336300       0.69819300       0.15179300
     4  Cl         0.45663700       0.30180700       0.84820700
     5  Cl         0.13312300       0.75695300       0.42482300
     6  Cl         0.86687700       0.24304700       0.57517700
     7  Cl         0.38597300       0.88549300       0.68198200
     8  Cl         0.61402700       0.11450700       0.31801800
     9  O          0.67113000       0.87113000       0.63073000
    10  O          0.32887000       0.12887000       0.36927000
    11  O          0.24702000       0.66822000       0.19678150
    12  O          0.75298000       0.33178000       0.80321850
    13  C          0.57631130       0.83146120       0.53276110
    14  C          0.42368870       0.16853880       0.46723890
    15  C          0.61236130       0.79574130       0.40788120
    16  C          0.38763870       0.20425870       0.59211880
    17  C          0.50391140       0.74052140       0.29777120
    18  C          0.49608860       0.25947860       0.70222880
    19  C          0.34460130       0.71713130       0.29659110
    20  C          0.65539870       0.28286870       0.70340890
    21  C          0.31338130       0.76807130       0.42381110
    22  C          0.68661870       0.23192870       0.57618890
    23  C          0.42101130       0.82114120       0.53362100
    24  C          0.57898870       0.17885880       0.46637900
    25  Cl         0.16974200       0.47096300       0.50688200
    26  Cl         0.83025800       0.52903700       0.49311800
    27  Cl         0.41312300       0.57823300       0.76083200
    28  Cl         0.58687700       0.42176700       0.23916800
    29  O          0.30182140       0.44024140       0.28987110
    30  O          0.69817860       0.55975860       0.71012890
    31  C          0.39163120       0.46323110       0.38546100
    32  C          0.60836880       0.53676890       0.61453900
    33  C          0.35362120       0.49266110       0.50705100
    34  C          0.64637880       0.50733890       0.49294900
    35  C          0.45632120       0.53040120       0.61515100
    36  C          0.54367880       0.46959880       0.38484900
    37  N          0.10382140       0.20042150       0.89977890
    38  N          0.89617860       0.79957850       0.10022110
    39  N          0.15821150       0.83027840       0.92585880
    40  N          0.84178850       0.16972160       0.07414120
    41  C          0.20507140       0.23236150       0.00400110
    42  C          0.79492860       0.76763850      -0.00400110
    43  H          0.27030000       0.35613000       0.08111800
    44  H          0.72970000       0.64387000       0.91888200
    45  C          0.22658130       0.11328150       0.01507100
    46  C          0.77341870       0.88671850       0.98492900
    47  H          0.30420000       0.14330000       0.10313000
    48  H          0.69580000       0.85670000       0.89687000
    49  C          0.14105140       0.94953840       0.91604880
    50  C          0.85894860       0.05046160       0.08395120
    51  C          0.03528130       0.92020850       0.80788900
    52  C          0.96471870       0.07979150       0.19211100
    53  H          0.96280000       0.79787000       0.73078400
    54  H          0.03720000       0.20213000       0.26921600
    55  C          0.02029140       0.04557170       0.80317880
    56  C         -0.02029140       0.95442830       0.19682120
    57  H          0.93680000       0.02030000       0.72187000
    58  H          0.06320000      -0.02030000       0.27813000
    59  C          0.09025130       0.33334000       0.88987890
    60  C          0.90974870       0.66666000       0.11012110
    61  H          0.96987000       0.29240000       0.84570000
    62  H          0.03013000       0.70760000       0.15430000
    63  H          0.15930000       0.36440000       0.82987000
    64  H          0.84070000       0.63560000       0.17013000
    65  H          0.13140000       0.43230000      -0.01213000
    66  H          0.86860000       0.56770000       0.01213000
    67  C          0.27943150       0.86706830       0.03134120
    68  C          0.72056850       0.13293170       0.96865880
    69  H          0.26130000       0.93770000       0.12113000
    70  H          0.73870000       0.06230000       0.87887000
    71  H          0.26730000       0.75387000       0.02230000
    72  H          0.73270000       0.24613000       0.97770000
    73  H          0.38913000       0.93370000       0.02230000
    74  H          0.61087000       0.06630000       0.97770000
    75  C          0.07224140       0.66276860       0.82242880
    76  C          0.92775860       0.33723140       0.17757120
    77  H          0.07840000       0.58387000       0.85870000
    78  H          0.92160000       0.41613000       0.14130000
    79  H          0.95387000       0.63560000       0.78870000
    80  H          0.04613000       0.36440000       0.21130000
    81  H          0.12340000       0.64350000       0.74287000
    82  H          0.87660000       0.35650000       0.25713000
