data_FILHOX
_symmetry_space_group_name_H-M    'P1'
_symmetry_Int_Tables_number       1
loop_
_symmetry_equiv_pos_site_id
_symmetry_equiv_pos_as_xyz
1 x,y,z
_cell_length_a                   6.7191
_cell_length_b                   7.3422
_cell_length_c                   10.7342
_cell_angle_alpha                82.522
_cell_angle_beta                 79.512
_cell_angle_gamma                104.062
loop_
_atom_site_label
_atom_site_type_symbol
_atom_site_fract_x
_atom_site_fract_y
_atom_site_fract_z
     1  O          0.39832000       0.52032000       0.85461000
     2  O          0.60168000       0.47968000       0.14539000
     3  O          0.34522000       0.23002000       0.79741000
     4  O          0.65478000       0.76998000       0.20259000
     5  O          0.32262000      -0.00682000       0.68271000
     6  O          0.67738000       0.00682000       0.31729000
     7  C          0.52072000       0.67092000       0.55521000
     8  C          0.47928000       0.32908000       0.44479000
     9  C          0.45712000       0.48972000       0.62921000
    10  C          0.54288000       0.51028000       0.37079000
    11  C          0.43652000       0.32532000       0.57621000
    12  C          0.56348000       0.67468000       0.42379000
    13  C          0.40092000       0.43012000       0.77092000
    14  C          0.59908000       0.56988000       0.22908000
    15  C          0.36382000       0.16002000       0.68352000
    16  C          0.63618000       0.83998000       0.31648000
    17  H          0.53330000       0.78940000       0.59230000
    18  H          0.46670000       0.21060000       0.40770000
    19  C         -0.01472000       0.41692000       0.46991000
    20  C          0.01472000       0.58308000       0.53009000
    21  C          0.91518000       0.23532000       0.54881000
    22  C          0.08482000       0.76468000       0.45119000
    23  C          0.87398000       0.21082000       0.68231000
    24  C          0.12602000       0.78918000       0.31769000
    25  C          0.80428000       0.02642000       0.76382000
    26  C          0.19572000       0.97358000       0.23618000
    27  C          0.76517000       0.00833000       0.89332000
    28  C          0.23483000      -0.00833000       0.10668000
    29  C          0.79007000       0.17153000       0.95222000
    30  C          0.20993000       0.82847000       0.04778000
    31  C          0.85508000       0.34882000       0.88041000
    32  C          0.14492000       0.65118000       0.11959000
    33  C          0.90168000       0.37702000       0.74231000
    34  C          0.09832000       0.62298000       0.25769000
    35  C          0.02852000       0.44282000       0.33461000
    36  C          0.97148000       0.55718000       0.66539000
    37  H          0.89260000       0.12140000       0.50730000
    38  H          0.10740000       0.87860000       0.49270000
    39  H          0.78470000       0.91260000       0.72140000
    40  H          0.21530000       0.08740000       0.27860000
    41  H          0.71860000       0.87560000       0.94630000
    42  H          0.28140000       0.12440000       0.05370000
    43  H          0.75960000       0.15840000       0.04830000
    44  H          0.24040000       0.84160000       0.95170000
    45  H          0.87170000       0.46340000       0.92030000
    46  H          0.12830000       0.53660000       0.07970000
    47  H          0.00540000       0.32540000       0.29330000
    48  H         -0.00540000       0.67460000       0.70670000
