data_FILHIR
_symmetry_space_group_name_H-M    'P1'
_symmetry_Int_Tables_number       1
loop_
_symmetry_equiv_pos_site_id
_symmetry_equiv_pos_as_xyz
1 x,y,z
_cell_length_a                   8.0933
_cell_length_b                   16.4795
_cell_length_c                   7.7462
_cell_angle_alpha                90.0
_cell_angle_beta                 90.0
_cell_angle_gamma                97.623
loop_
_atom_site_label
_atom_site_type_symbol
_atom_site_fract_x
_atom_site_fract_y
_atom_site_fract_z
     1  O          0.63213000       0.56042000       0.10444000
     2  O          0.86787000       0.93958000       0.60444000
     3  O          0.36787000       0.43958000       0.89556000
     4  O          0.13213000       0.06042000       0.39556000
     5  O          0.74744000       0.67442000       0.96286000
     6  O          0.75256000       0.82558000       0.46286000
     7  O          0.25256000       0.32558000       0.03714000
     8  O          0.24744000       0.17442000       0.53714000
     9  O          0.59063000       0.43582000       0.22794000
    10  O          0.90937000       0.06418000       0.72794000
    11  O          0.40937000       0.56418000       0.77206000
    12  O          0.09063000       0.93582000       0.27206000
    13  C          0.95014000       0.42252000       0.08535000
    14  C          0.54986000       0.07748000       0.58535000
    15  C          0.04986000       0.57748000       0.91465000
    16  C          0.45014000       0.92252000       0.41465000
    17  C          0.84984000       0.48392000       0.07615000
    18  C          0.65016000       0.01608000       0.57615000
    19  C          0.15016000       0.51608000       0.92385000
    20  C          0.34984000       0.98392000       0.42385000
    21  C          0.89744000       0.55782000      -0.00545000
    22  C          0.60256000       0.94218000       0.49455000
    23  C          0.10256000       0.44218000       0.00545000
    24  C          0.39744000       0.05782000       0.50545000
    25  C          0.67915000       0.48472000       0.14866000
    26  C          0.82085000       0.01528000       0.64866000
    27  C          0.32085000       0.51528000       0.85134000
    28  C          0.17915000       0.98472000       0.35134000
    29  C          0.75645000       0.60722000       0.01336000
    30  C          0.74355000       0.89278000       0.51336000
    31  C          0.24355000       0.39278000      -0.01336000
    32  C          0.25645000       0.10722000       0.48664000
    33  H          0.91040000       0.37420000       0.14250000
    34  H          0.58960000       0.12580000       0.64250000
    35  H          0.08960000       0.62580000       0.85750000
    36  H          0.41040000       0.87420000       0.35750000
    37  C          0.57944000       0.00782000       0.03495000
    38  C          0.92056000       0.49218000       0.53495000
    39  C          0.42056000      -0.00782000       0.96505000
    40  C          0.07944000       0.50782000       0.46505000
    41  C          0.63135000       0.08772000       0.11915000
    42  C          0.86865000       0.41228000       0.61915000
    43  C          0.36865000       0.91228000       0.88085000
    44  C          0.13135000       0.58772000       0.38085000
    45  C          0.78705000       0.10772000       0.19405000
    46  C          0.71295000       0.39228000       0.69405000
    47  C          0.21295000       0.89228000       0.80595000
    48  C          0.28705000       0.60772000       0.30595000
    49  C          0.82566000       0.17953000       0.27866000
    50  C          0.67434000       0.32047000       0.77866000
    51  C          0.17434000       0.82047000       0.72134000
    52  C          0.32566000       0.67953000       0.22134000
    53  C          0.71296000       0.23582000       0.29425000
    54  C          0.78704000       0.26418000       0.79425000
    55  C          0.28704000       0.76418000       0.70575000
    56  C          0.21296000       0.73582000       0.20575000
    57  C          0.56066000       0.22002000       0.21706000
    58  C          0.93934000       0.27998000       0.71706000
    59  C          0.43934000       0.77998000       0.78294000
    60  C          0.06066000       0.72002000       0.28294000
    61  C          0.51554000       0.14462000       0.12765000
    62  C         -0.01554000       0.35538000       0.62765000
    63  C          0.48446000       0.85538000       0.87235000
    64  C          0.01554000       0.64462000       0.37235000
    65  C          0.35755000       0.12582000       0.04845000
    66  C          0.14245000       0.37418000       0.54845000
    67  C          0.64245000       0.87418000       0.95155000
    68  C          0.85755000       0.62582000       0.45155000
    69  C          0.69115000       0.94798000       0.03145000
    70  C          0.80885000       0.55202000       0.53145000
    71  C          0.30885000       0.05202000       0.96855000
    72  C          0.19115000       0.44798000       0.46855000
    73  H          0.85540000       0.05620000       0.17250000
    74  H          0.64460000       0.44380000       0.67250000
    75  H          0.14460000       0.94380000       0.82750000
    76  H          0.35540000       0.55620000       0.32750000
    77  H          0.92850000       0.19220000       0.33050000
    78  H          0.57150000       0.30780000       0.83050000
    79  H          0.07150000       0.80780000       0.66950000
    80  H          0.42850000       0.69220000       0.16950000
    81  H          0.73750000       0.28620000       0.36450000
    82  H          0.76250000       0.21380000       0.86450000
    83  H          0.26250000       0.71380000       0.63550000
    84  H          0.23750000       0.78620000       0.13550000
    85  H          0.48740000       0.25420000       0.22750000
    86  H          0.01260000       0.24580000       0.72750000
    87  H          0.51260000       0.74580000       0.77250000
    88  H         -0.01260000       0.75420000       0.27250000
    89  H          0.27150000       0.16920000       0.05650000
    90  H          0.22850000       0.33080000       0.55650000
    91  H          0.72850000       0.83080000       0.94350000
    92  H          0.77150000       0.66920000       0.44350000
    93  H          0.80040000       0.96980000       0.08650000
    94  H          0.69960000       0.53020000       0.58650000
    95  H          0.19960000       0.03020000       0.91350000
    96  H          0.30040000       0.46980000       0.41350000
