data_FILQOJ
_symmetry_space_group_name_H-M    'P1'
_symmetry_Int_Tables_number       1
loop_
_symmetry_equiv_pos_site_id
_symmetry_equiv_pos_as_xyz
1 x,y,z
_cell_length_a                   12.72696
_cell_length_b                   7.58703
_cell_length_c                   16.47507
_cell_angle_alpha                90.0
_cell_angle_beta                 95.7064
_cell_angle_gamma                90.0
loop_
_atom_site_label
_atom_site_type_symbol
_atom_site_fract_x
_atom_site_fract_y
_atom_site_fract_z
     1  O          0.26446140       0.02592000       0.38957110
     2  O          0.73553860       0.52592000       0.61042890
     3  O          0.00701150       0.05252000       0.55926100
     4  O         -0.00701150       0.55252000       0.44073900
     5  O          0.23471140       0.19392000       0.62070110
     6  O          0.76528860       0.69392000       0.37929890
     7  O          0.52571170       0.28252000       0.32829110
     8  O          0.47428830       0.78252000       0.67170890
     9  H          0.54140000       0.37230000       0.35440000
    10  H          0.45860000       0.87230000       0.64560000
    11  O          0.47860140       0.18942000       0.44765100
    12  O          0.52139860       0.68942000       0.55234900
    13  O         -0.01126170       0.91078000       0.67532110
    14  O          0.01126170       0.41078000       0.32467890
    15  H          0.97430000       0.82760000       0.64450000
    16  H          0.02570000       0.32760000       0.35550000
    17  N          0.08860160       0.34693000       0.64150120
    18  N          0.91139840       0.84693000       0.35849880
    19  H          0.05340000       0.44360000       0.63500000
    20  H          0.94660000       0.94360000       0.36500000
    21  N          0.41350160       0.86743000       0.38249120
    22  N          0.58649840       0.36743000       0.61750880
    23  H          0.44650000       0.77240000       0.39800000
    24  H          0.55350000       0.27240000       0.60200000
    25  C          0.31709190       0.89053000       0.40633140
    26  C          0.68290810       0.39053000       0.59366860
    27  C          0.01281190       0.04953000       0.63262150
    28  C          0.98718810       0.54953000       0.36737850
    29  C          0.18012000       0.32833000       0.60844140
    30  C          0.81988000       0.82833000       0.39155860
    31  C          0.27826190       0.74333000       0.45657140
    32  C          0.72173810       0.24333000       0.54342860
    33  C          0.48900190       0.16473000       0.37623150
    34  C          0.51099810       0.66473000       0.62376850
    35  C          0.19029190       0.65223000       0.57278150
    36  C          0.80970810       0.15223000       0.42721850
    37  H          0.15350000       0.68030000       0.61710000
    38  H          0.84650000       0.18030000       0.38290000
    39  C          0.38132000       0.83543000       0.20668140
    40  C          0.61868000       0.33543000       0.79331860
    41  C          0.22255190       0.78513000       0.52317140
    42  C          0.77744810       0.28513000       0.47682860
    43  H          0.20720000       0.90200000       0.53410000
    44  H          0.79280000       0.40200000       0.46590000
    45  C          0.21282190       0.47553000       0.55645150
    46  C          0.78717810       0.97553000       0.44354850
    47  C          0.04906190       0.20373000       0.68826140
    48  C          0.95093810       0.70373000       0.31173860
    49  H          0.10690000       0.16230000       0.72730000
    50  H          0.89310000       0.66230000       0.27270000
    51  C          0.26712190       0.43483000       0.48940150
    52  C          0.73287810       0.93483000       0.51059850
    53  H          0.28180000       0.31780000       0.47810000
    54  H          0.71820000       0.81780000       0.52190000
    55  C          0.29936190       0.56763000       0.43940150
    56  C          0.70063810       0.06763000       0.56059850
    57  H          0.33500000       0.53930000       0.39450000
    58  H          0.66500000       0.03930000       0.60550000
    59  C          0.46702000      -0.01147000       0.33277150
    60  C          0.53298000       0.48853000       0.66722850
    61  H          0.53610000       0.93610000       0.32650000
    62  H          0.46390000       0.43610000       0.67350000
    63  C         -0.00532000       0.39133000       0.80491150
    64  C          0.00532000       0.89133000       0.19508850
    65  C          0.95858000       0.26543000       0.73648150
    66  C          0.04142000       0.76543000       0.26351850
    67  H          0.90540000       0.32310000       0.69950000
    68  H          0.09460000       0.82310000       0.30050000
    69  H          0.92620000       0.16330000       0.75920000
    70  H          0.07380000       0.66330000       0.24080000
    71  C          0.41172000       0.01163000       0.24585150
    72  C          0.58828000       0.51163000       0.75414850
    73  H          0.34870000       0.08290000       0.24810000
    74  H          0.65130000       0.58290000       0.75190000
    75  H          0.45850000       0.07340000       0.21260000
    76  H          0.54150000       0.57340000       0.78740000
    77  C          0.45302000       0.69954000       0.20245160
    78  C          0.54698000       0.19954000       0.79754840
    79  H          0.52300000       0.71620000       0.22300000
    80  H          0.47700000       0.21620000       0.77700000
    81  C          0.27692000       0.80814000       0.17475160
    82  C          0.72308000       0.30814000       0.82524840
    83  H          0.22780000       0.89840000       0.17670000
    84  H          0.77220000       0.39840000       0.82330000
    85  C          0.04912000       0.33064000       0.87669160
    86  C          0.95088000       0.83064000       0.12330840
    87  H          0.06240000       0.21070000       0.88340000
    88  H          0.93760000       0.71070000       0.11660000
    89  C          0.97427000       0.57014000       0.79729170
    90  C          0.02573000       0.07014000       0.20270830
    91  H          0.93630000       0.61260000       0.75020000
    92  H          0.06370000       0.11260000       0.24980000
    93  C          0.42193000       0.53814000       0.16785180
    94  C          0.57807000       0.03814000       0.83214820
    95  H          0.47090000       0.44800000       0.16520000
    96  H          0.52910000       0.94800000       0.83480000
    97  C          0.31823000       0.51254000       0.13751180
    98  C          0.68177000       0.01254000       0.86248820
    99  H          0.29700000       0.40400000       0.11520000
   100  H          0.70300000       0.90400000       0.88480000
   101  C          0.08423000       0.44755000       0.93882190
   102  C          0.91577000       0.94755000       0.06117810
   103  H          0.12070000       0.40500000       0.98650000
   104  H          0.87930000       0.90500000       0.01350000
   105  C          0.06523000       0.62525000       0.93012000
   106  C          0.93477000       0.12525000       0.06988000
   107  H          0.08930000       0.70330000       0.97140000
   108  H          0.91070000       0.20330000       0.02860000
   109  C          0.24563000       0.64755000       0.14013180
   110  C          0.75437000       0.14755000       0.85986820
   111  H          0.17590000       0.63070000       0.11870000
   112  H          0.82410000       0.13070000       0.88130000
   113  C          0.00963000       0.68704000       0.85882180
   114  C         -0.00963000       0.18704000       0.14117820
   115  H         -0.00400000       0.80690000       0.85240000
   116  H          0.00400000       0.30690000       0.14760000
   117  O          0.93239140       0.63072000       0.58953110
   118  O          0.06760860       0.13072000       0.41046890
   119  H          0.95230000       0.62250000       0.53851300
   120  H          0.04770000       0.12250000       0.46148700
   121  H          0.86701900       0.58450000       0.59520000
   122  H          0.13298100       0.08450000       0.40480000
   123  O          0.57112140       0.57752000       0.40473110
   124  O          0.42887860       0.07752000       0.59526890
   125  H          0.63681600       0.61540000       0.39881900
   126  H          0.36318400       0.11540000       0.60118100
   127  H          0.56530000       0.58640000       0.45951200
   128  H          0.43470000       0.08640000       0.54048800
   129  C          0.68802000       0.19634000       0.16107170
   130  C          0.31198000       0.69634000       0.83892830
   131  C          0.63293000       0.33204000       0.03113180
   132  C          0.36707000       0.83204000       0.96886820
   133  H          0.60280000       0.32080000       0.97760000
   134  H          0.39720000       0.82080000       0.02240000
   135  C          0.64292000       0.18424000       0.08103170
   136  C          0.35708000       0.68424000       0.91896830
   137  H          0.61900000       0.07560000       0.06050000
   138  H          0.38100000       0.57560000       0.93950000
   139  C          0.66712000       0.49584000       0.05992000
   140  C          0.33288000      -0.00416000       0.94008000
   141  C          0.71992000       0.36044000       0.19035180
   142  C          0.28008000       0.86044000       0.80964820
   143  H          0.74850000       0.37190000       0.24430000
   144  H          0.25150000       0.87190000       0.75570000
   145  C          0.70473000       0.03414000       0.21343190
   146  C          0.29527000       0.53414000       0.78656810
   147  H          0.77650000      -0.00480000       0.21360000
   148  H          0.22350000       0.49520000       0.78640000
   149  H          0.65800000       0.94240000       0.19190000
   150  H          0.34200000       0.44240000       0.80810000
   151  H          0.69040000       0.06120000       0.26820000
   152  H          0.30960000       0.56120000       0.73180000
   153  C          0.71003000       0.50734000       0.14112000
   154  C          0.28997000       0.00734000       0.85888000
   155  H          0.73220000       0.61620000       0.16230000
   156  H          0.26780000       0.11620000       0.83770000
   157  C          0.65854000       0.65515000       0.00463000
   158  C          0.34146000       0.15515000      -0.00463000
   159  H          0.71050000       0.64750000       0.96640000
   160  H          0.28950000       0.14750000       0.03360000
   161  H          0.67010000       0.76010000       0.03680000
   162  H          0.32990000       0.26010000       0.96320000
   163  H          0.58930000       0.65890000       0.97560000
   164  H          0.41070000       0.15890000       0.02440000
