data_FILQUP
_symmetry_space_group_name_H-M    'P1'
_symmetry_Int_Tables_number       1
loop_
_symmetry_equiv_pos_site_id
_symmetry_equiv_pos_as_xyz
1 x,y,z
_cell_length_a                   12.97585
_cell_length_b                   7.59763
_cell_length_c                   16.64099
_cell_angle_alpha                90.0
_cell_angle_beta                 95.6644
_cell_angle_gamma                90.0
loop_
_atom_site_label
_atom_site_type_symbol
_atom_site_fract_x
_atom_site_fract_y
_atom_site_fract_z
     1  C          0.81523150       0.08183000       0.40967150
     2  C          0.18476850       0.58183000       0.59032850
     3  C          0.77738140       0.22793000       0.45949150
     4  C          0.22261860       0.72793000       0.54050850
     5  C          0.79877170       0.40413000       0.44288170
     6  C          0.20122830       0.90413000       0.55711830
     7  H          0.83450000       0.43230000       0.39890000
     8  H          0.16550000       0.93230000       0.60110000
     9  C          0.76682170       0.53593000       0.49173170
    10  C          0.23317830       0.03593000       0.50826830
    11  H          0.78170000       0.65260000       0.48070000
    12  H          0.21830000       0.15260000       0.51930000
    13  C          0.71249150       0.49583000       0.55735150
    14  C          0.28750850      -0.00417000       0.44264850
    15  C          0.68977160       0.32053000       0.57315160
    16  C          0.31022840       0.82053000       0.42684840
    17  H          0.65300000       0.29260000       0.61670000
    18  H          0.34700000       0.79260000       0.38330000
    19  C          0.72166150       0.18833000       0.52442150
    20  C          0.27833850       0.68833000       0.47557850
    21  H          0.70580000       0.07180000       0.53510000
    22  H          0.29420000       0.57180000       0.46490000
    23  C          0.68041160       0.64333000       0.60872150
    24  C          0.31958840       0.14333000       0.39127850
    25  C          0.96251170      -0.01683000       0.33693170
    26  C          0.03748830       0.48317000       0.66306830
    27  H          0.02990000       0.03660000       0.33030000
    28  H          0.97010000       0.53660000       0.66970000
    29  C          0.98552160       0.80797000       0.37953160
    30  C          0.01447840       0.30797000       0.62046840
    31  C          0.90732000       0.96197000       0.25147180
    32  C          0.09268000       0.46197000       0.74852820
    33  H          0.95240000       0.89880000       0.21830000
    34  H          0.04760000       0.39880000       0.78170000
    35  H          0.84530000       0.89190000       0.25430000
    36  H          0.15470000       0.39190000       0.74570000
    37  C          0.87782000       0.13634000       0.21179170
    38  C          0.12218000       0.63634000       0.78820830
    39  C          0.94833000       0.27025000       0.20552000
    40  C          0.05167000       0.77025000       0.79448000
    41  H          0.01720000       0.25320000       0.22500000
    42  H          0.98280000       0.75320000       0.77500000
    43  C          0.91774000       0.43065000       0.17043000
    44  C          0.08226000       0.93065000       0.82957000
    45  H          0.96620000       0.51960000       0.16640000
    46  H          0.03380000       0.01960000       0.83360000
    47  C          0.81794000       0.45737000       0.14223000
    48  C          0.18206000       0.95737000       0.85777000
    49  H          0.79740000       0.56590000       0.12040000
    50  H          0.20260000       0.06590000       0.87960000
    51  C          0.74633000       0.32428000       0.14563000
    52  C          0.25367000       0.82428000       0.85437000
    53  H          0.67810000       0.34120000       0.12410000
    54  H          0.32190000       0.84120000       0.87590000
    55  C          0.77642000       0.16596000       0.18093000
    56  C          0.22358000       0.66596000       0.81907000
    57  H          0.72760000       0.07720000       0.18410000
    58  H          0.27240000       0.57720000       0.81590000
    59  C          0.51394160       0.92093000       0.63133160
    60  C          0.48605840       0.42093000       0.36866840
    61  C          0.55077160       0.76893000       0.68676160
    62  C          0.44922840       0.26893000       0.31323840
    63  H          0.60720000       0.81160000       0.72530000
    64  H          0.39280000       0.31160000       0.27470000
    65  C          0.46232180       0.70523000       0.73462180
    66  C          0.53767820       0.20523000       0.26537820
    67  H          0.42940000       0.80670000       0.75650000
    68  H          0.57060000       0.30670000       0.24350000
    69  H          0.41090000       0.64580000       0.69800000
    70  H          0.58910000       0.14580000       0.30200000
    71  C          0.49752000       0.58274000       0.80244190
    72  C          0.50248000       0.08274000       0.19755810
    73  C          0.54963000       0.64386000       0.87383000
    74  C          0.45037000       0.14386000       0.12617000
    75  H          0.56330000       0.76340000       0.88010000
    76  H          0.43670000       0.26340000       0.11990000
    77  C          0.58164000       0.52819000       0.93593000
    78  C          0.41836000       0.02819000       0.06407000
    79  H          0.61560000       0.57170000       0.98360000
    80  H          0.38440000       0.07170000       0.01640000
    81  C          0.56395000       0.35198000       0.92824000
    82  C          0.43605000       0.85198000       0.07176000
    83  H          0.58750000       0.27460000       0.96930000
    84  H          0.41250000       0.77460000       0.03070000
    85  C          0.51105000       0.29126000       0.85894000
    86  C          0.48895000       0.79126000       0.14106000
    87  H          0.49700000       0.17160000       0.85330000
    88  H          0.50300000       0.67160000       0.14670000
    89  C          0.47803000       0.40474000       0.79703000
    90  C          0.52197000       0.90474000       0.20297000
    91  H          0.44160000       0.36000000       0.75050000
    92  H          0.55840000       0.86000000       0.24950000
    93  N          0.91025130       0.10312000       0.38712130
    94  N          0.08974870       0.60312000       0.61287870
    95  H          0.94340000       0.19620000       0.40380000
    96  H          0.05660000       0.69620000       0.59620000
    97  N          0.59019140       0.62652000       0.64076130
    98  N          0.40980860       0.12652000       0.35923870
    99  H          0.55540000       0.53040000       0.63390000
   100  H          0.44460000       0.03040000       0.36610000
   101  O          0.76275120       0.94878000       0.39190130
   102  O          0.23724880       0.44878000       0.60809870
   103  O          0.73453130       0.77642000       0.62165140
   104  O          0.26546870       0.27642000       0.37834860
   105  O          0.97583140       0.78017000       0.44924130
   106  O          0.02416860       0.28017000       0.55075870
   107  O          0.02322000       0.69337000       0.33146150
   108  O          0.97678000       0.19337000       0.66853850
   109  H          0.04060000       0.60410000       0.35700000
   110  H          0.95940000       0.10410000       0.64300000
   111  O          0.50770150       0.91823000       0.55934130
   112  O          0.49229850       0.41823000       0.44065870
   113  O          0.49018190       0.05942000       0.67368140
   114  O          0.50981810       0.55942000       0.32631860
   115  H          0.47160000       0.14020000       0.64290000
   116  H          0.52840000       0.64020000       0.35710000
   117  C          0.20224000       0.92997000       0.21264000
   118  C          0.79776000       0.42997000       0.78736000
   119  H          0.18230000       0.90470000       0.26550000
   120  H          0.81770000       0.40470000       0.73450000
   121  H          0.16030000       0.02420000       0.18890000
   122  H          0.83970000       0.52420000       0.81110000
   123  H          0.27380000       0.96380000       0.21680000
   124  H          0.72620000       0.46380000       0.78320000
   125  C          0.18682000       0.76935000       0.16073000
   126  C          0.81318000       0.26935000       0.83927000
   127  C          0.14463000       0.78046000       0.08203000
   128  C          0.85537000       0.28046000       0.91797000
   129  H          0.12190000       0.88910000       0.06150000
   130  H          0.87810000       0.38910000       0.93850000
   131  C          0.13504000       0.63507000       0.03253000
   132  C          0.86496000       0.13507000       0.96747000
   133  H          0.10670000       0.64790000       0.97920000
   134  H          0.89330000       0.14790000       0.02080000
   135  C          0.16584000       0.47327000       0.05974000
   136  C          0.83416000       0.97327000       0.94026000
   137  C          0.20703000       0.46086000       0.14094000
   138  C          0.79297000       0.96086000       0.85906000
   139  H          0.22850000       0.35190000       0.16190000
   140  H          0.77150000       0.85190000       0.83810000
   141  C          0.21623000       0.60636000       0.18973000
   142  C          0.78377000       0.10636000       0.81027000
   143  H          0.24280000       0.59420000       0.24340000
   144  H          0.75720000       0.09420000       0.75660000
   145  C          0.15756000       0.31441100       0.00727000
   146  C          0.84244000       0.81441100      -0.00727000
   147  H          0.09660000       0.32340000       0.96960000
   148  H          0.90340000       0.82340000       0.03040000
   149  H          0.15270000       0.21130000       0.03990000
   150  H          0.84730000       0.71130000       0.96010000
   151  H          0.21760000       0.30620000       0.97810000
   152  H          0.78240000       0.80620000       0.02190000
   153  H          0.36661700       0.37750000       0.59330000
   154  H          0.63338300       0.87750000       0.40670000
   155  H          0.44820000       0.34240000       0.53641300
   156  H          0.55180000       0.84240000       0.46358700
   157  O          0.43251120       0.33992000       0.58855120
   158  O          0.56748880       0.83992000       0.41144880
   159  H          0.13520000       0.35350000       0.39630000
   160  H          0.86480000       0.85350000       0.60370000
   161  H          0.07130000       0.38650000       0.45901300
   162  H          0.92870000       0.88650000       0.54098700
   163  O          0.07319120       0.39502000       0.40396130
   164  O          0.92680880       0.89502000       0.59603870
