data_FITGOE
_symmetry_space_group_name_H-M    'P1'
_symmetry_Int_Tables_number       1
loop_
_symmetry_equiv_pos_site_id
_symmetry_equiv_pos_as_xyz
1 x,y,z
_cell_length_a                   17.269515
_cell_length_b                   9.50676
_cell_length_c                   14.22169
_cell_angle_alpha                90.0
_cell_angle_beta                 90.7616
_cell_angle_gamma                90.0
loop_
_atom_site_label
_atom_site_type_symbol
_atom_site_fract_x
_atom_site_fract_y
_atom_site_fract_z
     1  Br         0.14096200       0.22022500       0.06311300
     2  Br         0.85903800       0.72022500       0.43688700
     3  Br         0.85903800       0.77977500       0.93688700
     4  Br         0.14096200       0.27977500       0.56311300
     5  N          0.05791000       0.42043000       0.36312000
     6  N          0.94209000       0.92043000       0.13688000
     7  N          0.94209000       0.57957000       0.63688000
     8  N          0.05791000       0.07957000       0.86312000
     9  N         -0.00611000       0.33873000       0.38242000
    10  N          0.00611000       0.83873000       0.11758000
    11  N          0.00611000       0.66127000       0.61758000
    12  N         -0.00611000       0.16127000       0.88242000
    13  C          0.01412000       0.21063000       0.35782000
    14  C          0.98588000       0.71063000       0.14218000
    15  C          0.98588000       0.78937000       0.64218000
    16  C          0.01412000       0.28937000       0.85782000
    17  N          0.08721000       0.21293000       0.32062000
    18  N          0.91279000       0.71293000       0.17938000
    19  N          0.91279000       0.78707000       0.67938000
    20  N          0.08721000       0.28707000       0.82062000
    21  N          0.12831000       0.09253000       0.29222000
    22  N          0.87169000       0.59253000       0.20778000
    23  N          0.87169000       0.90747000       0.70778000
    24  N          0.12831000       0.40747000       0.79222000
    25  C          0.21042000       0.10813000       0.32232000
    26  C          0.78958000       0.60813000       0.17768000
    27  C          0.78958000       0.89187000       0.67768000
    28  C          0.21042000       0.39187000       0.82232000
    29  C          0.24892000       0.23083000       0.27042000
    30  C          0.75108000       0.73083000       0.22958000
    31  C          0.75108000       0.76917000       0.72958000
    32  C          0.24892000       0.26917000       0.77042000
    33  S          0.20500400       0.40197700       0.29855600
    34  S          0.79499600       0.90197700       0.20144400
    35  S          0.79499600       0.59802300       0.70144400
    36  S          0.20500400       0.09802300       0.79855600
    37  C          0.11422000       0.34553000       0.32692000
    38  C          0.88578000       0.84553000       0.17308000
    39  C          0.88578000       0.65447000       0.67308000
    40  C          0.11422000       0.15447000       0.82692000
    41  C          0.06192000       0.56564000       0.39353000
    42  C          0.93808000       0.06564000       0.10647000
    43  C          0.93808000       0.43436000       0.60647000
    44  C          0.06192000       0.93436000       0.89353000
    45  S          0.96405500       0.05453100       0.36861600
    46  S          0.03594500       0.55453100       0.13138400
    47  S          0.03594500       0.94546900       0.63138400
    48  S          0.96405500       0.44546900       0.86861600
    49  C          0.88327000       0.11607000       0.43436000
    50  C          0.11673000       0.61607000       0.06564000
    51  C          0.11673000       0.88393000       0.56564000
    52  C          0.88327000       0.38393000       0.93436000
    53  C          0.25032000       0.97007000       0.30252000
    54  C          0.74968000       0.47007000       0.19748000
    55  C          0.74968000       0.02993000       0.69748000
    56  C          0.25032000       0.52993000       0.80252000
    57  C          0.26652000       0.92736000       0.21163000
    58  C          0.73348000       0.42736000       0.28837000
    59  C          0.73348000       0.07264000       0.78837000
    60  C          0.26652000       0.57264000       0.71163000
    61  C          0.30533000       0.79996000       0.19683000
    62  C          0.69467000       0.29996000       0.30317000
    63  C          0.69467000       0.20004000       0.80317000
    64  C          0.30533000       0.70004000       0.69683000
    65  C          0.32712000       0.71816000       0.27154000
    66  C          0.67288000       0.21816000       0.22846000
    67  C          0.67288000       0.28184000       0.72846000
    68  C          0.32712000       0.78184000       0.77154000
    69  C          0.31053000       0.75846000       0.36164000
    70  C          0.68947000       0.25846000       0.13836000
    71  C          0.68947000       0.24154000       0.63836000
    72  C          0.31053000       0.74154000       0.86164000
    73  C          0.27212000       0.88466000       0.37683000
    74  C          0.72788000       0.38466000       0.12317000
    75  C          0.72788000       0.11534000       0.62317000
    76  C          0.27212000       0.61534000       0.87683000
    77  C          0.33452000       0.24923000       0.29552000
    78  C          0.66548000       0.74923000       0.20448000
    79  C          0.66548000       0.75077000       0.70448000
    80  C          0.33452000       0.25077000       0.79552000
    81  O          0.36121000       0.19733000       0.36642000
    82  O          0.63879000       0.69733000       0.13358000
    83  O          0.63879000       0.80267000       0.63358000
    84  O          0.36121000       0.30267000       0.86642000
    85  C          0.38232000       0.33483000       0.23062000
    86  C          0.61768000       0.83483000       0.26938000
    87  C          0.61768000       0.66517000       0.76938000
    88  C          0.38232000       0.16517000       0.73062000
    89  C          0.45772000       0.36803000       0.25832000
    90  C          0.54228000       0.86803000       0.24168000
    91  C          0.54228000       0.63197000       0.74168000
    92  C          0.45772000       0.13197000       0.75832000
    93  C          0.50322000       0.45484000       0.20403000
    94  C          0.49678000       0.95484000       0.29597000
    95  C          0.49678000       0.54516000       0.79597000
    96  C          0.50322000       0.04516000       0.70403000
    97  C          0.47292000       0.50954000       0.12083000
    98  C          0.52708000       0.00954000       0.37917000
    99  C          0.52708000       0.49046000       0.87917000
   100  C          0.47292000      -0.00954000       0.62083000
   101  C          0.39942000       0.47494000       0.09143000
   102  C          0.60058000       0.97494000       0.40857000
   103  C          0.60058000       0.52506000       0.90857000
   104  C          0.39942000       0.02506000       0.59143000
   105  C          0.35342000       0.38763000       0.14532000
   106  C          0.64658000       0.88763000       0.35468000
   107  C          0.64658000       0.61237000       0.85468000
   108  C          0.35342000       0.11237000       0.64532000
   109  H          0.12430000       0.08350000       0.23740000
   110  H          0.87570000       0.58350000       0.26260000
   111  H          0.87570000       0.91650000       0.76260000
   112  H          0.12430000       0.41650000       0.73740000
   113  H          0.21020000       0.12830000       0.38730000
   114  H          0.78980000       0.62830000       0.11270000
   115  H          0.78980000       0.87170000       0.61270000
   116  H          0.21020000       0.37170000       0.88730000
   117  H          0.24320000       0.22040000       0.21330000
   118  H          0.75680000       0.72040000       0.28670000
   119  H          0.75680000       0.77960000       0.78670000
   120  H          0.24320000       0.27960000       0.71330000
   121  H          0.07830000       0.57060000       0.45650000
   122  H          0.92170000       0.07060000       0.04350000
   123  H          0.92170000       0.42940000       0.54350000
   124  H          0.07830000       0.92940000       0.95650000
   125  H          0.01140000       0.60870000       0.38840000
   126  H          0.98860000       0.10870000       0.11160000
   127  H          0.98860000       0.39130000       0.61160000
   128  H          0.01140000       0.89130000       0.88840000
   129  H          0.09030000       0.61650000       0.34940000
   130  H          0.90970000       0.11650000       0.15060000
   131  H          0.90970000       0.38350000       0.65060000
   132  H          0.09030000       0.88350000       0.84940000
   133  H          0.86550000       0.18410000       0.39260000
   134  H          0.13450000       0.68410000       0.10740000
   135  H          0.13450000       0.81590000       0.60740000
   136  H          0.86550000       0.31590000       0.89260000
   137  H          0.91450000       0.14711000       0.49770000
   138  H          0.08550000       0.64711000       0.00230000
   139  H          0.08550000       0.85289000       0.50230000
   140  H          0.91450000       0.35289000      -0.00230000
   141  H          0.85220000       0.02818000       0.44011000
   142  H          0.14780000       0.52818000       0.05989000
   143  H          0.14780000       0.97182000       0.55989000
   144  H          0.85220000       0.47182000       0.94011000
   145  H          0.25020000       0.98050000       0.16230000
   146  H          0.74980000       0.48050000       0.33770000
   147  H          0.74980000       0.01950000       0.83770000
   148  H          0.25020000       0.51950000       0.66230000
   149  H          0.31130000       0.76940000       0.13340000
   150  H          0.68870000       0.26940000       0.36660000
   151  H          0.68870000       0.23060000       0.86660000
   152  H          0.31130000       0.73060000       0.63340000
   153  H          0.36030000       0.63230000       0.26540000
   154  H          0.63970000       0.13230000       0.23460000
   155  H          0.63970000       0.36770000       0.73460000
   156  H          0.36030000       0.86770000       0.76540000
   157  H          0.31940000       0.69710000       0.41560000
   158  H          0.68060000       0.19710000       0.08440000
   159  H          0.68060000       0.30290000       0.58440000
   160  H          0.31940000       0.80290000       0.91560000
   161  H          0.25730000       0.91150000       0.43540000
   162  H          0.74270000       0.41150000       0.06460000
   163  H          0.74270000       0.08850000       0.56460000
   164  H          0.25730000       0.58850000       0.93540000
   165  H          0.47320000       0.33340000       0.31230000
   166  H          0.52680000       0.83340000       0.18770000
   167  H          0.52680000       0.66660000       0.68770000
   168  H          0.47320000       0.16660000       0.81230000
   169  H          0.56230000       0.47550000       0.22830000
   170  H          0.43770000       0.97550000       0.27170000
   171  H          0.43770000       0.52450000       0.77170000
   172  H          0.56230000       0.02450000       0.72830000
   173  H          0.50030000       0.56760000       0.08940000
   174  H          0.49970000       0.06760000       0.41060000
   175  H          0.49970000       0.43240000       0.91060000
   176  H          0.50030000       0.93240000       0.58940000
   177  H          0.38030000       0.50950000       0.03740000
   178  H          0.61970000       0.00950000       0.46260000
   179  H          0.61970000       0.49050000       0.96260000
   180  H          0.38030000      -0.00950000       0.53740000
   181  H          0.30530000       0.36040000       0.12430000
   182  H          0.69470000       0.86040000       0.37570000
   183  H          0.69470000       0.63960000       0.87570000
   184  H          0.30530000       0.13960000       0.62430000
   185  O          0.55152000       0.10693000       0.97178000
   186  O          0.44848000       0.60693000       0.52822000
   187  O          0.44848000       0.89307000       0.02822000
   188  O          0.55152000       0.39307000       0.47178000
   189  C          0.49564000       0.12945000       0.04054000
   190  C          0.50436000       0.62945000       0.45946000
   191  C          0.50436000       0.87055000       0.95946000
   192  C          0.49564000       0.37055000       0.54054000
   193  C          0.57343000       0.96075000       0.97356000
   194  C          0.42657000       0.46075000       0.52644000
   195  C          0.42657000       0.03925000       0.02644000
   196  C          0.57343000       0.53925000       0.47356000
   197  H          0.47850000       0.21510000       0.03960000
   198  H          0.52150000       0.71510000       0.46040000
   199  H          0.52150000       0.78490000       0.96040000
   200  H          0.47850000       0.28490000       0.53960000
   201  H          0.52440000       0.10970000       0.10350000
   202  H          0.47560000       0.60970000       0.39650000
   203  H          0.47560000       0.89030000       0.89650000
   204  H          0.52440000       0.39030000       0.60350000
   205  H          0.57740000       0.01670000       0.04550000
   206  H          0.42260000       0.51670000       0.45450000
   207  H          0.42260000       0.98330000       0.95450000
   208  H          0.57740000       0.48330000       0.54550000
   209  H          0.60830000       0.95230000       0.92050000
   210  H          0.39170000       0.45230000       0.57950000
   211  H          0.39170000       0.04770000       0.07950000
   212  H          0.60830000       0.54770000       0.42050000
   213  H          0.42340000       0.98330000       0.95450000
   214  H          0.57660000       0.48330000       0.54550000
   215  H          0.57660000       0.01670000       0.04550000
   216  H          0.42340000       0.51670000       0.45450000
   217  H          0.39230000       0.04770000       0.07950000
   218  H          0.60770000       0.54770000       0.42050000
   219  H          0.60770000       0.95230000       0.92050000
   220  H          0.39230000       0.45230000       0.57950000
   221  H          0.52250000       0.78490000       0.96040000
   222  H          0.47750000       0.28490000       0.53960000
   223  H          0.47750000       0.21510000       0.03960000
   224  H          0.52250000       0.71510000       0.46040000
   225  H          0.47640000       0.89030000       0.89650000
   226  H          0.52360000       0.39030000       0.60350000
   227  H          0.52360000       0.10970000       0.10350000
   228  H          0.47640000       0.60970000       0.39650000
