data_FIWYOC
_symmetry_space_group_name_H-M    'P1'
_symmetry_Int_Tables_number       1
loop_
_symmetry_equiv_pos_site_id
_symmetry_equiv_pos_as_xyz
1 x,y,z
_cell_length_a                   4.07468
_cell_length_b                   12.1133
_cell_length_c                   25.3086
_cell_angle_alpha                90.0
_cell_angle_beta                 93.31711
_cell_angle_gamma                90.0
loop_
_atom_site_label
_atom_site_type_symbol
_atom_site_fract_x
_atom_site_fract_y
_atom_site_fract_z
     1  C          0.07041100       0.20134000       0.33872000
     2  C          0.92958900       0.70134000       0.16128000
     3  C          0.92958900       0.79866000       0.66128000
     4  C          0.07041100       0.29866000       0.83872000
     5  H          0.14011000       0.22440000       0.37251800
     6  H          0.85989000       0.72440000       0.12748200
     7  H          0.85989000       0.77560000       0.62748200
     8  H          0.14011000       0.27560000       0.87251800
     9  C          0.88641200       0.26174000       0.30182000
    10  C          0.11358800       0.76174000       0.19818000
    11  C          0.11358800       0.73826000       0.69818000
    12  C          0.88641200       0.23826000       0.80182000
    13  H          0.85610000       0.33020000       0.31211600
    14  H          0.14390000       0.83020000       0.18788400
    15  H          0.14390000       0.66980000       0.68788400
    16  H          0.85610000       0.16980000       0.81211600
    17  C          0.76401100       0.21614000       0.25586190
    18  C          0.23598900       0.71614000       0.24413810
    19  C          0.23598900       0.78386000       0.74413810
    20  C          0.76401100       0.28386000       0.75586190
    21  H          0.65090000       0.25930000       0.23151400
    22  H          0.34910000       0.75930000       0.26848600
    23  H          0.34910000       0.74070000       0.76848600
    24  H          0.65090000       0.24070000       0.73151400
    25  C          0.82459000       0.10774000       0.24624150
    26  C          0.17541000       0.60774000       0.25375850
    27  C          0.17541000       0.89226000       0.75375850
    28  C          0.82459000       0.39226000       0.74624150
    29  C          0.00579000       0.04344000       0.28205160
    30  C         -0.00579000       0.54344000       0.21794840
    31  C         -0.00579000       0.95656000       0.71794840
    32  C          0.00579000       0.45656000       0.78205160
    33  H          0.03390000       0.96460000       0.27581600
    34  H         -0.03390000       0.46460000       0.22418400
    35  H         -0.03390000       0.03540000       0.72418400
    36  H          0.03390000       0.53540000       0.77581600
    37  C          0.13159000       0.09093000       0.32873150
    38  C          0.86841000       0.59093000       0.17126850
    39  C          0.86841000       0.90907000       0.67126850
    40  C          0.13159000       0.40907000       0.82873150
    41  C          0.33041000       0.02594000       0.36821170
    42  C          0.66959000       0.52594000       0.13178830
    43  C          0.66959000       0.97406000       0.63178830
    44  C          0.33041000       0.47406000       0.86821170
    45  O          0.40107000       0.92638000       0.35167120
    46  O          0.59893000       0.42638000       0.14832880
    47  O          0.59893000       0.07362000       0.64832880
    48  O          0.40107000       0.57362000       0.85167120
    49  H          0.53312000       0.89160000       0.38420000
    50  H          0.46688000       0.39160000       0.11580000
    51  H          0.46688000       0.10840000       0.61580000
    52  H          0.53312000       0.60840000       0.88420000
    53  O          0.42168000       0.06083000       0.41065120
    54  O          0.57832000       0.56083000       0.08934880
    55  O          0.57832000       0.93917000       0.58934880
    56  O          0.42168000       0.43917000       0.91065120
    57  Br         0.65576100       0.04125400       0.18291200
    58  Br         0.34423900       0.54125400       0.31708800
    59  Br         0.34423900       0.95874600       0.81708800
    60  Br         0.65576100       0.45874600       0.68291200
    61  C          0.10891100       0.27994000       0.58611190
    62  C          0.89108900       0.77994000       0.91388810
    63  C          0.89108900       0.72006000       0.41388810
    64  C          0.10891100       0.22006000       0.08611190
    65  H          0.14390000       0.29930000       0.61681600
    66  H          0.85610000       0.79930000       0.88318400
    67  H          0.85610000       0.70070000       0.38318400
    68  H          0.14390000       0.20070000       0.11681600
    69  C          0.92941200       0.34234000       0.55032000
    70  C          0.07058800       0.84234000       0.94968000
    71  C          0.07058800       0.65766000       0.44968000
    72  C          0.92941200       0.15766000       0.05032000
    73  H          0.86210000       0.39940000       0.55681700
    74  H          0.13790000       0.89940000       0.94318300
    75  H          0.13790000       0.60060000       0.44318300
    76  H          0.86210000       0.10060000       0.05681700
    77  C          0.85749000       0.29783000       0.50139160
    78  C          0.14251000       0.79783000      -0.00139160
    79  C          0.14251000       0.70217000       0.49860840
    80  C          0.85749000       0.20217000       0.00139160
    81  C         -0.03408900       0.19474000       0.49073190
    82  C          0.03408900       0.69474000       0.00926810
    83  C          0.03408900       0.80526000       0.50926810
    84  C         -0.03408900       0.30526000       0.99073190
    85  C          0.14591100       0.13934000       0.52912170
    86  C          0.85408900       0.63934000       0.97087830
    87  C          0.85408900       0.86066000       0.47087830
    88  C          0.14591100       0.36066000       0.02912170
    89  C          0.67551100       0.36144000       0.46180190
    90  C          0.32448900       0.86144000       0.03819810
    91  C          0.32448900       0.63856000       0.53819810
    92  C          0.67551100       0.13856000       0.96180190
    93  N          0.53151200       0.41164000       0.43102190
    94  N          0.46848800       0.91164000       0.06897810
    95  N          0.46848800       0.58836000       0.56897810
    96  N          0.53151200       0.08836000       0.93102190
    97  N          0.21898000       0.18123000       0.57667130
    98  N          0.78102000       0.68123000       0.92332870
    99  N          0.78102000       0.81877000       0.42332870
   100  N          0.21898000       0.31877000       0.07667130
   101  H          0.93011000       0.16440000       0.46131900
   102  H          0.06989000       0.66440000       0.03868100
   103  H          0.06989000       0.83560000       0.53868100
   104  H          0.93011000       0.33560000       0.96131900
   105  H          0.23090000       0.06830000       0.52281700
   106  H          0.76910000       0.56830000       0.97718300
   107  H          0.76910000       0.93170000       0.47718300
   108  H          0.23090000       0.43170000       0.02281700
