data_FODCAF
_symmetry_space_group_name_H-M    'P1'
_symmetry_Int_Tables_number       1
loop_
_symmetry_equiv_pos_site_id
_symmetry_equiv_pos_as_xyz
1 x,y,z
_cell_length_a                   11.72194
_cell_length_b                   13.10094
_cell_length_c                   14.27315
_cell_angle_alpha                70.6613
_cell_angle_beta                 85.0363
_cell_angle_gamma                82.6743
loop_
_atom_site_label
_atom_site_type_symbol
_atom_site_fract_x
_atom_site_fract_y
_atom_site_fract_z
     1  C          0.93353140       0.69713140       0.32512140
     2  C          0.06646860       0.30286860       0.67487860
     3  C          0.88702000       0.62410170       0.41068170
     4  C          0.11298000       0.37589830       0.58931830
     5  H          0.85390000       0.64950000       0.46150000
     6  H          0.14610000       0.35050000       0.53850000
     7  C          0.88902000       0.51438190       0.42192000
     8  C          0.11098000       0.48561810       0.57808000
     9  H          0.85740000       0.46750000       0.47970000
    10  H          0.14260000       0.53250000       0.52030000
    11  C          0.93792000       0.47451160       0.34742000
    12  C          0.06208000       0.52548840       0.65258000
    13  H          0.93970000       0.40100000       0.35500000
    14  H          0.06030000       0.59900000       0.64500000
    15  C          0.98399190       0.54480170       0.26197190
    16  C          0.01600810       0.45519830       0.73802810
    17  H          0.01680000       0.51900000       0.21140000
    18  H          0.98320000       0.48100000       0.78860000
    19  C          0.98133170       0.65471160       0.25134170
    20  C          0.01866830       0.34528840       0.74865830
    21  H          0.01250000       0.70120000       0.19310000
    22  H          0.98750000       0.29880000       0.80690000
    23  C          0.01926140       0.89311130       0.23164130
    24  C          0.98073860       0.10688870       0.76835870
    25  C          0.13798150       0.86163140       0.24107150
    26  C          0.86201850       0.13836860       0.75892850
    27  H          0.16300000       0.79950000       0.29220000
    28  H          0.83700000       0.20050000       0.70780000
    29  C          0.21906160       0.92121160       0.17566160
    30  C          0.78093840       0.07878840       0.82433840
    31  H          0.29710000       0.89870000       0.18370000
    32  H          0.70290000       0.10130000       0.81630000
    33  C          0.18418170       0.01337160       0.09902150
    34  C          0.81581830       0.98662840       0.90097850
    35  H          0.23830000       0.05320000       0.05530000
    36  H          0.76170000       0.94680000       0.94470000
    37  C          0.06716170       0.04615150       0.08785150
    38  C          0.93283830       0.95384850       0.91214850
    39  H          0.04260000       0.10820000       0.03640000
    40  H          0.95740000       0.89180000       0.96360000
    41  C          0.98720150       0.98636150       0.15348140
    42  C          0.01279850       0.01363850       0.84651860
    43  H          0.90930000       0.00950000       0.14490000
    44  H          0.09070000       0.99050000       0.85510000
    45  C          0.71461140       0.84765140       0.25636140
    46  C          0.28538860       0.15234860       0.74363860
    47  C          0.60801160       0.83432160       0.30515160
    48  C          0.39198840       0.16567840       0.69484840
    49  H          0.59310000       0.84840000       0.36500000
    50  H          0.40690000       0.15160000       0.63500000
    51  C          0.54435170       0.78144160       0.17396160
    52  C          0.45564830       0.21855840       0.82603840
    53  H          0.48690000       0.76010000       0.14570000
    54  H          0.51310000       0.23990000       0.85430000
    55  C          0.65177170       0.79510150       0.12574150
    56  C          0.34822830       0.20489850       0.87425850
    57  H          0.66610000       0.78240000       0.06520000
    58  H          0.33390000       0.21760000       0.93480000
    59  C          0.73845160       0.82744140       0.16659140
    60  C          0.26154840       0.17255860       0.83340860
    61  H          0.81090000       0.83540000       0.13460000
    62  H          0.18910000       0.16460000       0.86540000
    63  C          0.52265160       0.79955170       0.26388170
    64  C          0.47734840       0.20044830       0.73611830
    65  H          0.45110000       0.78860000       0.29710000
    66  H          0.54890000       0.21140000       0.70290000
    67  C          0.77606140       0.97013140       0.32490140
    68  C          0.22393860       0.02986860       0.67509860
    69  H          0.70530000       0.01110000       0.30900000
    70  H          0.29470000       0.98890000       0.69100000
    71  C          0.94123140       0.92448140       0.42767130
    72  C          0.05876860       0.07551860       0.57232870
    73  C          0.85416140       0.00335140       0.37843130
    74  C          0.14583860      -0.00335140       0.62156870
    75  C          0.83681140       0.10684140       0.39104130
    76  C          0.16318860       0.89315860       0.60895870
    77  H          0.77910000       0.15810000       0.35760000
    78  H          0.22090000       0.84190000       0.64240000
    79  C          0.00968140       0.94764130       0.49492130
    80  C         -0.00968140       0.05235870       0.50507870
    81  C          0.09595140       0.86776130       0.54808130
    82  C          0.90404860       0.13223870       0.45191870
    83  H          0.10640000       0.79890000       0.54140000
    84  H          0.89360000       0.20110000       0.45860000
    85  B          0.93175160       0.82315150       0.31532150
    86  B          0.06824840       0.17684850       0.68467850
    87  N          0.80186120       0.88443120       0.29830110
    88  N          0.19813880       0.11556880       0.70169890
    89  O          0.95831100       0.82783100       0.41590900
    90  O          0.04168900       0.17216900       0.58409100
    91  C          0.48963140       0.20918120       0.17684120
    92  C          0.51036860       0.79081880       0.82315880
    93  C          0.47537150       0.14131150       0.12218150
    94  C          0.52462850       0.85868850       0.87781850
    95  H          0.40240000       0.12150000       0.12050000
    96  H          0.59760000       0.87850000       0.87950000
    97  C          0.56725170       0.10221150       0.06995150
    98  C          0.43274830       0.89778850       0.93004850
    99  H          0.55490000       0.05690000       0.03440000
   100  H          0.44510000       0.94310000       0.96560000
   101  C          0.67660160       0.13083150       0.07096140
   102  C          0.32339840       0.86916850       0.92903860
   103  H          0.73780000       0.10580000       0.03560000
   104  H          0.26220000       0.89420000       0.96440000
   105  C          0.69380150       0.19744150       0.12542150
   106  C          0.30619850       0.80255850       0.87457850
   107  H          0.76710000       0.21670000       0.12700000
   108  H          0.23290000       0.78330000       0.87300000
   109  C          0.60205150       0.23537130       0.17748140
   110  C          0.39794850       0.76462870       0.82251860
   111  H          0.61540000       0.27950000       0.21390000
   112  H          0.38460000       0.72050000       0.78610000
   113  C          0.36277140       0.38454140       0.21348140
   114  C          0.63722860       0.61545860       0.78651860
   115  C          0.30441180       0.43055160       0.28245160
   116  C          0.69558820       0.56944840       0.71754840
   117  H          0.28370000       0.38530000       0.34550000
   118  H          0.71630000       0.61470000       0.65450000
   119  C          0.27677190       0.54272170       0.25848190
   120  C          0.72322810       0.45727830       0.74151810
   121  H          0.23870000       0.57120000       0.30570000
   122  H          0.76130000       0.42880000       0.69430000
   123  C          0.30522170       0.61131150       0.16606190
   124  C          0.69477830       0.38868850       0.83393810
   125  H          0.28500000       0.68590000       0.15000000
   126  H          0.71500000       0.31410000       0.85000000
   127  C          0.36445180       0.56885160       0.09641190
   128  C          0.63554820       0.43114840       0.90358810
   129  H          0.38510000       0.61490000       0.03370000
   130  H          0.61490000       0.38510000       0.96630000
   131  C          0.39289170       0.45654150       0.12103150
   132  C          0.60710830       0.54345850       0.87896850
   133  H          0.43330000       0.42900000       0.07410000
   134  H          0.56670000       0.57100000       0.92590000
   135  C          0.17593150       0.25533130       0.18319140
   136  C          0.82406850       0.74466870       0.81680860
   137  C          0.19613170       0.30884140       0.08237140
   138  C          0.80386830       0.69115860       0.91762860
   139  H          0.27090000       0.31250000       0.05470000
   140  H          0.72910000       0.68750000       0.94530000
   141  C          0.10259190       0.35686160       0.02369160
   142  C          0.89740810       0.64313840       0.97630840
   143  H          0.11460000       0.39130000       0.95580000
   144  H          0.88540000       0.60870000       0.04420000
   145  C         -0.00908180       0.35349160       0.06619180
   146  C          0.00908180       0.64650840       0.93380820
   147  H          0.92860000       0.38510000       0.02650000
   148  H          0.07140000       0.61490000       0.97350000
   149  C          0.97272830       0.30342160       0.16671180
   150  C          0.02727170       0.69657840       0.83328820
   151  H          0.89830000       0.30310000       0.19510000
   152  H          0.10170000       0.69690000       0.80490000
   153  C          0.06545160       0.25324150       0.22594160
   154  C          0.93454840       0.74675850       0.77405840
   155  H          0.05320000       0.21860000       0.29370000
   156  H          0.94680000       0.78140000       0.70630000
   157  C          0.26384150       0.10139140       0.30194130
   158  C          0.73615850       0.89860860       0.69805870
   159  H          0.20110000       0.06630000       0.29810000
   160  H          0.79890000       0.93370000       0.70190000
   161  C          0.34919150       0.04501140       0.37208130
   162  C          0.65080850       0.95498860       0.62791870
   163  C          0.42387150       0.10666130       0.39646130
   164  C          0.57612850       0.89333870       0.60353870
   165  C          0.50035150       0.05674120       0.47528130
   166  C          0.49964850       0.94325880       0.52471870
   167  C          0.57565150       0.11850130       0.50178130
   168  C          0.42434850       0.88149870       0.49821870
   169  H          0.57440000       0.19290000       0.46870000
   170  H          0.42560000       0.80710000       0.53130000
   171  C          0.64948150       0.06847140       0.57560130
   172  C          0.35051850       0.93152860       0.42439870
   173  H          0.69970000       0.10870000       0.59210000
   174  H          0.30030000       0.89130000       0.40790000
   175  B          0.38960160       0.25449150       0.24315150
   176  B          0.61039840       0.74550850       0.75684850
   177  N          0.27174130       0.20042120       0.24342110
   178  N          0.72825870       0.79957880       0.75657890
   179  O          0.42167110       0.21289900       0.34992900
   180  O          0.57832890       0.78710100       0.65007100
   181  C          0.65982000       0.43424170       0.32002000
   182  C          0.34018000       0.56575830       0.67998000
   183  C          0.67773000       0.50152000       0.21333000
   184  C          0.32227000       0.49848000       0.78667000
   185  H          0.72450000       0.45870000       0.17850000
   186  H          0.27550000       0.54130000       0.82150000
   187  H          0.71550000       0.56370000       0.20950000
   188  H          0.28450000       0.43630000       0.79050000
   189  H          0.60450000       0.52540000       0.18340000
   190  H          0.39550000       0.47460000       0.81660000
   191  C          0.58483000       0.48573000       0.38514000
   192  C          0.41517000       0.51427000       0.61486000
   193  H          0.57930000       0.43460000       0.45100000
   194  H          0.42070000       0.56540000       0.54900000
   195  H          0.50950000       0.50730000       0.35910000
   196  H          0.49050000       0.49270000       0.64090000
   197  H          0.61740000       0.54850000       0.38710000
   198  H          0.38260000       0.45150000       0.61290000
   199  O          0.70478160       0.34132130       0.35166160
   200  O          0.29521840       0.65867870       0.64833840
