data_FOFZIM
_symmetry_space_group_name_H-M    'P1'
_symmetry_Int_Tables_number       1
loop_
_symmetry_equiv_pos_site_id
_symmetry_equiv_pos_as_xyz
1 x,y,z
_cell_length_a                   7.279688
_cell_length_b                   13.7929014
_cell_length_c                   11.1023613
_cell_angle_alpha                90.0
_cell_angle_beta                 94.37491
_cell_angle_gamma                90.0
loop_
_atom_site_label
_atom_site_type_symbol
_atom_site_fract_x
_atom_site_fract_y
_atom_site_fract_z
     1  I          0.51029200       0.67507200       0.27795200
     2  I         -0.01029200       0.17507200       0.22204800
     3  I          0.48970800       0.32492800       0.72204800
     4  I          0.01029200       0.82492800       0.77795200
     5  F          0.34833110       0.01820700       0.06089700
     6  F          0.15166890       0.51820700       0.43910300
     7  F          0.65166890       0.98179300       0.93910300
     8  F          0.84833110       0.48179300       0.56089700
     9  F          0.36568120       0.82253600       0.06451800
    10  F          0.13431880       0.32253600       0.43548200
    11  F          0.63431880       0.17746400       0.93548200
    12  F          0.86568120       0.67746400       0.56451800
    13  F          0.65240110       0.84855600       0.46102700
    14  F          0.84759890       0.34855600       0.03897300
    15  F          0.34759890       0.15144400       0.53897300
    16  F          0.15240110       0.65144400       0.96102700
    17  F          0.64621110       0.04244600       0.43042700
    18  F          0.85378890       0.54244600       0.06957300
    19  F          0.35378890       0.95755400       0.56957300
    20  F          0.14621110       0.45755400       0.93042700
    21  N          0.49810140       0.02889800       0.24551100
    22  N          0.00189860       0.52889800       0.25448900
    23  N          0.50189860       0.97110200       0.75448900
    24  N         -0.00189860       0.47110200       0.74551100
    25  C          0.42897170       0.97299100       0.15798120
    26  C          0.07102830       0.47299100       0.34201880
    27  C          0.57102830       0.02700900       0.84201880
    28  C          0.92897170       0.52700900       0.65798120
    29  C          0.43375160       0.87323100       0.16056110
    30  C          0.06624840       0.37323100       0.33943890
    31  C          0.56624840       0.12676900       0.83943890
    32  C          0.93375160       0.62676900       0.66056110
    33  C          0.50852160       0.82649900       0.26362120
    34  C         -0.00852160       0.32649900       0.23637880
    35  C          0.49147840       0.17350100       0.73637880
    36  C          0.00852160       0.67350100       0.76362120
    37  C          0.57910160       0.88587900       0.35699110
    38  C          0.92089840       0.38587900       0.14300890
    39  C          0.42089840       0.11412100       0.64300890
    40  C          0.07910160       0.61412100       0.85699110
    41  C          0.57283170       0.98509900       0.34177120
    42  C          0.92716830       0.48509900       0.15822880
    43  C          0.42716830       0.01490100       0.65822880
    44  C          0.07283170       0.51490100       0.84177120
    45  N          0.49700140       0.47280900       0.26837110
    46  N          0.00299860       0.97280900       0.23162890
    47  N          0.50299860       0.52719100       0.73162890
    48  N         -0.00299860       0.02719100       0.76837110
    49  C          0.44514180       0.44457100       0.15537130
    50  C          0.05485820       0.94457100       0.34462870
    51  C          0.55485820       0.55542900       0.84462870
    52  C          0.94514180       0.05542900       0.65537130
    53  H          0.41520000       0.49541300       0.09941600
    54  H          0.08480000      -0.00458700       0.40058400
    55  H          0.58480000       0.50458700       0.90058400
    56  H          0.91520000       0.00458700       0.59941600
    57  C          0.43655190       0.34877100       0.11958140
    58  C          0.06344810       0.84877100       0.38041860
    59  C          0.56344810       0.65122900       0.88041860
    60  C          0.93655190       0.15122900       0.61958140
    61  H          0.39620000       0.33511200       0.03621800
    62  H          0.10380000       0.83511200       0.46378200
    63  H          0.60380000       0.66488800       0.96378200
    64  H          0.89620000       0.16488800       0.53621800
    65  C          0.48297190       0.27751100       0.20456150
    66  C          0.01702810       0.77751100       0.29543850
    67  C          0.51702810       0.72248900       0.79543850
    68  C         -0.01702810       0.22248900       0.70456150
    69  H          0.47930000       0.20741500       0.18151900
    70  H          0.02070000       0.70741500       0.31848100
    71  H          0.52070000       0.79258500       0.81848100
    72  H          0.97930000       0.29258500       0.68151900
    73  C          0.53392000       0.30547110       0.32169160
    74  C          0.96608000       0.80547110       0.17830840
    75  C          0.46608000       0.69452890       0.67830840
    76  C          0.03392000       0.19452890       0.82169160
    77  H          0.56520000       0.25991400       0.38461800
    78  H          0.93480000       0.75991400       0.11538200
    79  H          0.43480000       0.74008600       0.61538200
    80  H          0.06520000       0.24008600       0.88461800
    81  C          0.53988190       0.40341110       0.34996130
    82  C          0.96011810       0.90341110       0.15003870
    83  C          0.46011810       0.59658890       0.65003870
    84  C          0.03988190       0.09658890       0.84996130
    85  H          0.57420000       0.42351300       0.43101800
    86  H          0.92580000       0.92351300       0.06898200
    87  H          0.42580000       0.57648700       0.56898200
    88  H          0.07420000       0.07648700       0.93101800
