data_FOFZIL
_symmetry_space_group_name_H-M    'P1'
_symmetry_Int_Tables_number       1
loop_
_symmetry_equiv_pos_site_id
_symmetry_equiv_pos_as_xyz
1 x,y,z
_cell_length_a                   10.42079
_cell_length_b                   10.60619
_cell_length_c                   11.23289
_cell_angle_alpha                67.1674
_cell_angle_beta                 73.7494
_cell_angle_gamma                81.1095
loop_
_atom_site_label
_atom_site_type_symbol
_atom_site_fract_x
_atom_site_fract_y
_atom_site_fract_z
     1  Cl         0.19805150       0.21842170       0.15662130
     2  Cl         0.80194850       0.78157830       0.84337870
     3  Cl         0.31462120       0.43571130       0.87868120
     4  Cl         0.68537880       0.56428870       0.12131880
     5  O          0.24493000       0.33644000       0.45993000
     6  O          0.75507000       0.66356000       0.54007000
     7  O          0.23943000       0.40973000       0.62363000
     8  O          0.76057000       0.59027000       0.37637000
     9  O          0.81253000       0.28913000       0.73983000
    10  O          0.18747000       0.71087000       0.26017000
    11  O          0.61643000       0.40183000       0.78333000
    12  O          0.38357000       0.59817000       0.21667000
    13  N          0.64384000       0.18454000       0.48513000
    14  N          0.35616000       0.81546000       0.51487000
    15  H          0.68940000       0.14440000       0.43030000
    16  H          0.31060000       0.85560000       0.56970000
    17  C          0.70514000       0.21454000       0.56434000
    18  C          0.29486000       0.78546000       0.43566000
    19  C          0.63504000       0.28314000       0.64384000
    20  C          0.36496000       0.71686000       0.35616000
    21  C          0.48454000       0.31604000       0.65934000
    22  C          0.51546000       0.68396000       0.34066000
    23  H          0.46410000       0.41320000       0.65350000
    24  H          0.53590000       0.58680000       0.34650000
    25  C          0.43744000       0.29684000       0.55054000
    26  C          0.56256000       0.70316000       0.44946000
    27  C          0.51554000       0.23134000       0.47204000
    28  C          0.48446000       0.76866000       0.52796000
    29  C          0.41164000       0.22074000       0.79754000
    30  C          0.58836000       0.77926000       0.20246000
    31  C          0.42574000       0.07924000       0.82334000
    32  C          0.57426000       0.92076000       0.17666000
    33  H          0.47620000       0.04760000       0.75470000
    34  H          0.52380000       0.95240000       0.24530000
    35  C          0.36764000       0.98395000       0.94694000
    36  C          0.63236000       0.01605000       0.05306000
    37  H          0.37650000       0.88900000       0.96140000
    38  H          0.62350000       0.11100000       0.03860000
    39  C          0.29774000       0.02855000       0.04694000
    40  C          0.70226000       0.97145000       0.95306000
    41  H          0.25900000       0.96420000       0.13180000
    42  H          0.74100000       0.03580000       0.86820000
    43  C          0.28314000       0.16685000       0.02514000
    44  C          0.71686000       0.83315000       0.97486000
    45  C          0.33934000       0.26425000       0.89974000
    46  C          0.66066000       0.73575000       0.10026000
    47  C          0.84874000       0.16055000       0.55244000
    48  C          0.15126000       0.83945000       0.44756000
    49  H          0.90190000       0.22580000       0.55770000
    50  H          0.09810000       0.77420000       0.44230000
    51  H          0.88380000       0.14830000       0.46680000
    52  H          0.11620000       0.85170000       0.53320000
    53  H          0.85370000       0.07230000       0.62510000
    54  H          0.14630000       0.92770000       0.37490000
    55  C          0.69914000       0.32184000       0.72414000
    56  C          0.30086000       0.67816000       0.27586000
    57  C          0.66865000       0.44895000       0.86405000
    58  C          0.33135000       0.55105000       0.13595000
    59  H          0.60300000       0.51370000       0.89430000
    60  H          0.39700000       0.48630000       0.10570000
    61  H          0.75200000       0.49450000       0.81130000
    62  H          0.24800000       0.50550000       0.18870000
    63  H          0.68610000       0.37060000       0.94140000
    64  H          0.31390000       0.62940000       0.05860000
    65  C          0.30004000       0.34794000       0.53724000
    66  C          0.69996000       0.65206000       0.46276000
    67  C          0.10444000       0.46775000       0.61355000
    68  C          0.89556000       0.53225000       0.38645000
    69  H          0.04570000       0.39480000       0.62990000
    70  H          0.95430000       0.60520000       0.37010000
    71  H          0.10680000       0.53680000       0.52330000
    72  H          0.89320000       0.46320000       0.47670000
    73  C          0.05235000       0.53266000       0.71475000
    74  C          0.94765000       0.46734000       0.28525000
    75  H          0.96180000       0.57270000       0.70960000
    76  H          0.03820000       0.42730000       0.29040000
    77  H          0.11110000       0.60460000       0.69760000
    78  H          0.88890000       0.39540000       0.30240000
    79  H          0.04970000       0.46320000       0.80360000
    80  H          0.95030000       0.53680000       0.19640000
    81  C          0.47975000       0.20216000       0.36485000
    82  C          0.52025000       0.79784000       0.63515000
    83  H          0.39980000       0.14820000       0.40320000
    84  H          0.60020000       0.85180000       0.59680000
    85  H          0.55440000       0.15030000       0.32600000
    86  H          0.44560000       0.84970000       0.67400000
    87  H          0.46160000       0.28870000       0.29530000
    88  H          0.53840000       0.71130000       0.70470000
    89  N          0.82134000       0.09944000       0.27184000
    90  N          0.17866000       0.90056000       0.72816000
    91  C          0.85326000       0.18985000       0.14755000
    92  C          0.14674000       0.81015000       0.85245000
    93  H          0.82670000       0.28350000       0.13240000
    94  H          0.17330000       0.71650000       0.86760000
    95  C          0.92206000       0.15535000       0.04085000
    96  C          0.07794000       0.84465000       0.95915000
    97  H          0.94170000       0.22460000       0.95460000
    98  H          0.05830000       0.77540000       0.04540000
    99  C          0.96354000       0.02074000       0.05654000
   100  C          0.03646000       0.97926000       0.94346000
   101  C          0.93105000       0.92725000       0.18484000
   102  C          0.06895000       0.07275000       0.81516000
   103  H          0.95700000       0.83320000       0.20250000
   104  H          0.04300000       0.16680000       0.79750000
   105  C          0.86045000       0.96975000       0.28834000
   106  C          0.13955000       0.03025000       0.71166000
   107  H          0.83900000       0.90270000       0.37560000
   108  H          0.16100000       0.09730000       0.62440000
