data_FOFZEI
_symmetry_space_group_name_H-M    'P1'
_symmetry_Int_Tables_number       1
loop_
_symmetry_equiv_pos_site_id
_symmetry_equiv_pos_as_xyz
1 x,y,z
_cell_length_a                   6.23928
_cell_length_b                   7.17939
_cell_length_c                   12.417513
_cell_angle_alpha                73.7211
_cell_angle_beta                 85.9939
_cell_angle_gamma                83.8811
loop_
_atom_site_label
_atom_site_type_symbol
_atom_site_fract_x
_atom_site_fract_y
_atom_site_fract_z
     1  H          0.77440000       0.17640000       0.57120000
     2  H          0.22560000       0.82360000       0.42880000
     3  H          0.47140000       0.16830000       0.69620000
     4  H          0.52860000       0.83170000       0.30380000
     5  H          0.52240000       0.02430000       0.88951900
     6  H          0.47760000       0.97570000       0.11048100
     7  H          0.85740000       0.88770000       0.95720000
     8  H          0.14260000       0.11230000       0.04280000
     9  H          0.15440000       0.89970000       0.83201900
    10  H          0.84560000       0.10030000       0.16798100
    11  H          0.11040000       0.03540000       0.63920000
    12  H          0.88960000       0.96460000       0.36080000
    13  C          0.79093000       0.11653000       0.65017170
    14  C          0.20907000       0.88347000       0.34982830
    15  C          0.61553000       0.11253000       0.72386180
    16  C          0.38447000       0.88747000       0.27613820
    17  C          0.63893000       0.02973000       0.83776170
    18  C          0.36107000       0.97027000       0.16223830
    19  C          0.83913000       0.94997000       0.87772160
    20  C          0.16087000       0.05003000       0.12227840
    21  C          0.01493000       0.95297000       0.80419170
    22  C         -0.01493000       0.04703000       0.19580830
    23  C         -0.00867000       0.03633000       0.69037170
    24  C          0.00867000       0.96367000       0.30962830
    25  C          0.72353000       0.67583000       0.62721160
    26  C          0.27647000       0.32417000       0.37278840
    27  C          0.66143000       0.61223000       0.73895150
    28  C          0.33857000       0.38777000       0.26104850
    29  C          0.81213000       0.50132000       0.81333140
    30  C          0.18787000       0.49868000       0.18666860
    31  C          0.01503000       0.46012000       0.76993140
    32  C         -0.01503000       0.53988000       0.23006860
    33  C          0.05653000       0.53213000       0.65623150
    34  C          0.94347000       0.46787000       0.34376850
    35  N          0.91543000       0.63802000       0.58585120
    36  N          0.08457000       0.36198000       0.41414880
    37  F          0.58109190       0.78477160       0.55480100
    38  F          0.41890810       0.21522840       0.44519900
    39  F          0.46260170       0.65698160       0.77531100
    40  F          0.53739830       0.34301840       0.22468900
    41  F          0.16830170       0.35466150       0.83666900
    42  F          0.83169830       0.64533850       0.16333100
    43  F          0.25245170       0.49403160       0.61351900
    44  F          0.74754830       0.50596840       0.38648100
    45  Cl         0.74932800       0.42202700       0.95261400
    46  Cl         0.25067200       0.57797300       0.04738600
