data_FOGBAH
_symmetry_space_group_name_H-M    'P1'
_symmetry_Int_Tables_number       1
loop_
_symmetry_equiv_pos_site_id
_symmetry_equiv_pos_as_xyz
1 x,y,z
_cell_length_a                   5.59623
_cell_length_b                   11.55696
_cell_length_c                   15.38219
_cell_angle_alpha                90.0
_cell_angle_beta                 90.0
_cell_angle_gamma                90.0
loop_
_atom_site_label
_atom_site_type_symbol
_atom_site_fract_x
_atom_site_fract_y
_atom_site_fract_z
     1  F          0.87487000       0.78789100       0.45775800
     2  F          0.62513000       0.21210900       0.95775800
     3  F          0.37487000       0.71210900       0.54224200
     4  F          0.12513000       0.28789100       0.04224200
     5  F          0.28603000       0.83001100       0.36826900
     6  F          0.21397000       0.16998900       0.86826900
     7  F          0.78603000       0.66998900       0.63173100
     8  F          0.71397000       0.33001100       0.13173100
     9  F          0.38158190       0.69717110       0.22531700
    10  F          0.11841810       0.30282890       0.72531700
    11  F          0.88158190       0.80282890       0.77468300
    12  F          0.61841810       0.19717110       0.27468300
    13  F          0.07052000       0.52552100       0.18020700
    14  F          0.42948000       0.47447900       0.68020700
    15  F          0.57052000       0.97447900       0.81979300
    16  F          0.92948000       0.02552100       0.31979300
    17  F          0.66898000       0.49806100       0.27722700
    18  F          0.83102000       0.50193900       0.77722700
    19  F          0.16898000       0.00193900       0.72277300
    20  F          0.33102000      -0.00193900       0.22277300
    21  N          0.77457000       0.64318130       0.36678900
    22  N          0.72543000       0.35681870       0.86678900
    23  N          0.27457000       0.85681870       0.63321100
    24  N          0.22543000       0.14318130       0.13321100
    25  C          0.92787000       0.72378140       0.38816110
    26  C          0.57213000       0.27621860       0.88816110
    27  C          0.42787000       0.77621860       0.61183890
    28  C          0.07213000       0.22378140       0.11183890
    29  C          0.13704000       0.74619140       0.34392110
    30  C          0.36296000       0.25380860       0.84392110
    31  C          0.63704000       0.75380860       0.65607890
    32  C          0.86296000       0.24619140       0.15607890
    33  C          0.18623000       0.67929150       0.27179110
    34  C          0.31377000       0.32070850       0.77179110
    35  C          0.68623000       0.82070850       0.72820890
    36  C          0.81377000       0.17929150       0.22820890
    37  C          0.02833000       0.59295140       0.24900100
    38  C          0.47167000       0.40704860       0.74900100
    39  C          0.52833000       0.90704860       0.75099900
    40  C          0.97167000       0.09295140       0.25099900
    41  C          0.82617000       0.57974130       0.29880100
    42  C          0.67383000       0.42025870       0.79880100
    43  C          0.32617000       0.92025870       0.70119900
    44  C          0.17383000       0.07974130       0.20119900
    45  N          0.01903000       0.31066120       0.38251900
    46  N          0.48097000       0.68933880       0.88251900
    47  N          0.51903000       0.18933880       0.61748100
    48  N         -0.01903000       0.81066120       0.11748100
    49  C          0.85627000       0.32493130       0.44518100
    50  C          0.64373000       0.67506870       0.94518100
    51  C          0.35627000       0.17506870       0.55481900
    52  C          0.14373000       0.82493130       0.05481900
    53  H          0.71360000       0.27741800       0.44031400
    54  H          0.78640000       0.72258200       0.94031400
    55  H          0.21360000       0.22258200       0.55968600
    56  H          0.28640000       0.77741800       0.05968600
    57  C          0.87697000       0.40538140       0.51182110
    58  C          0.62303000       0.59461860       0.01182110
    59  C          0.37697000       0.09461860       0.48817890
    60  C          0.12303000       0.90538140       0.98817890
    61  H          0.74860000       0.40961800       0.55531400
    62  H          0.75140000       0.59038200       0.05531400
    63  H          0.24860000       0.09038200       0.44468600
    64  H          0.25140000       0.90961800       0.94468600
    65  C          0.07763000       0.47542130       0.51371110
    66  C          0.42237000       0.52457870       0.01371110
    67  C          0.57763000       0.02457870       0.48628890
    68  C          0.92237000       0.97542130       0.98628890
    69  H          0.09740000       0.52971900       0.55791400
    70  H          0.40260000       0.47028100       0.05791400
    71  H          0.59740000       0.97028100       0.44208600
    72  H          0.90260000       0.02971900       0.94208600
    73  C          0.24853000       0.46243130       0.44945110
    74  C          0.25147000       0.53756870       0.94945110
    75  C          0.74853000       0.03756870       0.55054890
    76  C          0.75147000       0.96243130       0.05054890
    77  H          0.38740000       0.50911800       0.44871300
    78  H          0.11260000       0.49088200       0.94871300
    79  H          0.88740000      -0.00911800       0.55128700
    80  H          0.61260000       0.00911800       0.05128700
    81  C          0.21243000       0.37940140       0.38598110
    82  C          0.28757000       0.62059860       0.88598110
    83  C          0.71243000       0.12059860       0.61401890
    84  C          0.78757000       0.87940140       0.11401890
    85  H          0.33340000       0.36991900       0.33931400
    86  H          0.16660000       0.63008100       0.83931400
    87  H          0.83340000       0.13008100       0.66068600
    88  H          0.66660000       0.86991900       0.16068600
