data_FOHDIQ
_symmetry_space_group_name_H-M    'P1'
_symmetry_Int_Tables_number       1
loop_
_symmetry_equiv_pos_site_id
_symmetry_equiv_pos_as_xyz
1 x,y,z
_cell_length_a                   10.0742
_cell_length_b                   5.628912
_cell_length_c                   13.9693
_cell_angle_alpha                90.0
_cell_angle_beta                 110.0744
_cell_angle_gamma                90.0
loop_
_atom_site_label
_atom_site_type_symbol
_atom_site_fract_x
_atom_site_fract_y
_atom_site_fract_z
     1  S          0.85857400       0.94424120       0.92765500
     2  S          0.14142600       0.44424120       0.07234500
     3  O          0.13275160       0.00483000       0.73050120
     4  O          0.86724840       0.50483000       0.26949880
     5  O          0.89273830       0.53284000       0.65101130
     6  O          0.10726170       0.03284000       0.34898870
     7  O          0.69218000       0.64984000       0.67026150
     8  O          0.30782000       0.14984000       0.32973850
     9  H          0.69840000       0.76180000       0.63450000
    10  H          0.30160000       0.26180000       0.36550000
    11  N          0.07001190       0.86144000       0.86172140
    12  N          0.92998810       0.36144000       0.13827860
    13  H          0.09310000       0.75940000       0.91050000
    14  H          0.90690000       0.25940000       0.08950000
    15  N          0.92475810       0.17424000       0.78547140
    16  N          0.07524190       0.67424000       0.21452860
    17  H          0.97840000       0.19210000       0.74960000
    18  H          0.02160000       0.69210000       0.25040000
    19  C          0.27332000       0.48174000       0.87876160
    20  C          0.72668000      -0.01826000       0.12123840
    21  H          0.19420000       0.43730000       0.89430000
    22  H          0.80580000       0.93730000       0.10570000
    23  C          0.39033000       0.33435000       0.90534180
    24  C          0.60967000       0.83435000       0.09465820
    25  H          0.39030000       0.19200000       0.93910000
    26  H          0.60970000       0.69200000       0.06090000
    27  C          0.50713000       0.40035000       0.88129180
    28  C          0.49287000       0.90035000       0.11870820
    29  H          0.58620000       0.30230000       0.89950000
    30  H          0.41380000       0.80230000       0.10050000
    31  C          0.50753000       0.60765000       0.83122000
    32  C          0.49247000       0.10765000       0.16878000
    33  H          0.58640000       0.64980000       0.81480000
    34  H          0.41360000       0.14980000       0.18520000
    35  C          0.39132000       0.75505000       0.80467190
    36  C          0.60868000       0.25505000       0.19532810
    37  H          0.39180000       0.89600000       0.77010000
    38  H          0.60820000       0.39600000       0.22990000
    39  C          0.27312000       0.69354000       0.82944160
    40  C          0.72688000       0.19354000       0.17055840
    41  C          0.15312000       0.86584000       0.80102170
    42  C          0.84688000       0.36584000       0.19897830
    43  C          0.95338000       0.00284000       0.85308150
    44  C          0.04662000       0.50284000       0.14691850
    45  C          0.80688000       0.33425000       0.76879180
    46  C          0.19312000       0.83425000       0.23120820
    47  H          0.81490000       0.41320000       0.83220000
    48  H          0.18510000       0.91320000       0.16780000
    49  H          0.71940000       0.24430000       0.74680000
    50  H          0.28060000       0.74430000       0.25320000
    51  C          0.80298000       0.51645000       0.68969160
    52  C          0.19702000       0.01645000       0.31030840
    53  S          0.67896700       0.04731120       0.45849500
    54  S          0.32103300       0.54731120       0.54150500
    55  O          0.66629190       0.02604000       0.56209130
    56  O          0.33370810       0.52604000       0.43790870
    57  C          0.86253000       0.05758000       0.48082000
    58  C          0.13747000       0.55758000       0.51918000
    59  H          0.90020000       0.20560000       0.51270000
    60  H          0.09980000       0.70560000       0.48730000
    61  H          0.87870000       0.04380000       0.41720000
    62  H          0.12130000       0.54380000       0.58280000
    63  H          0.90840000       0.92850000       0.52470000
    64  H          0.09160000       0.42850000       0.47530000
    65  C          0.64294000       0.76206000       0.40313000
    66  C          0.35706000       0.26206000       0.59687000
    67  H          0.71310000       0.65200000       0.44280000
    68  H          0.28690000       0.15200000       0.55720000
    69  H          0.64490000       0.76770000       0.33490000
    70  H          0.35510000       0.26770000       0.66510000
    71  H          0.55120000       0.71110000       0.40140000
    72  H          0.44880000       0.21110000       0.59860000
