data_FOHPOJ
_symmetry_space_group_name_H-M    'P1'
_symmetry_Int_Tables_number       1
loop_
_symmetry_equiv_pos_site_id
_symmetry_equiv_pos_as_xyz
1 x,y,z
_cell_length_a                   36.9534
_cell_length_b                   5.27786
_cell_length_c                   11.544112
_cell_angle_alpha                90.0
_cell_angle_beta                 90.52901
_cell_angle_gamma                90.0
loop_
_atom_site_label
_atom_site_type_symbol
_atom_site_fract_x
_atom_site_fract_y
_atom_site_fract_z
     1  C          0.40664700       0.78515000       0.28762000
     2  C          0.59335300       0.78515000       0.21238000
     3  C          0.90664700       0.28515000       0.28762000
     4  C          0.09335300       0.28515000       0.21238000
     5  C          0.59335300       0.21485000       0.71238000
     6  C          0.40664700       0.21485000       0.78762000
     7  C          0.09335300       0.71485000       0.71238000
     8  C          0.90664700       0.71485000       0.78762000
     9  C          0.40948600       0.94625000       0.19432000
    10  C          0.59051400       0.94625000       0.30568000
    11  C          0.90948600       0.44625000       0.19432000
    12  C          0.09051400       0.44625000       0.30568000
    13  C          0.59051400       0.05375000       0.80568000
    14  C          0.40948600       0.05375000       0.69432000
    15  C          0.09051400       0.55375000       0.80568000
    16  C          0.90948600       0.55375000       0.69432000
    17  C          0.43923600       0.91935000       0.12322000
    18  C          0.56076400       0.91935000       0.37678000
    19  C          0.93923600       0.41935000       0.12322000
    20  C          0.06076400       0.41935000       0.37678000
    21  C          0.56076400       0.08065000       0.87678000
    22  C          0.43923600       0.08065000       0.62322000
    23  C          0.06076400       0.58065000       0.87678000
    24  C          0.93923600       0.58065000       0.62322000
    25  C          0.46501700       0.73765000       0.14472000
    26  C          0.53498300       0.73765000       0.35528000
    27  C          0.96501700       0.23765000       0.14472000
    28  C          0.03498300       0.23765000       0.35528000
    29  C          0.53498300       0.26235000       0.85528000
    30  C          0.46501700       0.26235000       0.64472000
    31  C          0.03498300       0.76235000       0.85528000
    32  C          0.96501700       0.76235000       0.64472000
    33  C          0.46212600       0.57365000       0.23772000
    34  C          0.53787400       0.57365000       0.26228000
    35  C          0.96212600       0.07365000       0.23772000
    36  C          0.03787400       0.07365000       0.26228000
    37  C          0.53787400       0.42635000       0.76228000
    38  C          0.46212600       0.42635000       0.73772000
    39  C          0.03787400       0.92635000       0.76228000
    40  C          0.96212600       0.92635000       0.73772000
    41  C          0.43204700       0.60105000       0.30832000
    42  C          0.56795300       0.60105000       0.19168000
    43  C          0.93204700       0.10105000       0.30832000
    44  C          0.06795300       0.10105000       0.19168000
    45  C          0.56795300       0.39895000       0.69168000
    46  C          0.43204700       0.39895000       0.80832000
    47  C          0.06795300       0.89895000       0.69168000
    48  C          0.93204700       0.89895000       0.80832000
    49  N          0.48307600       0.34664000       0.24942000
    50  N          0.51692400       0.34664000       0.25058000
    51  N          0.98307600       0.84664000       0.24942000
    52  N          0.01692400       0.84664000       0.25058000
    53  N          0.51692400       0.65336000       0.75058000
    54  N          0.48307600       0.65336000       0.74942000
    55  N          0.01692400       0.15336000       0.75058000
    56  N          0.98307600       0.15336000       0.74942000
    57  Br         0.37460170       0.19728500       0.16376200
    58  Br         0.62539830       0.19728500       0.33623800
    59  Br         0.87460170       0.69728500       0.16376200
    60  Br         0.12539830       0.69728500       0.33623800
    61  Br         0.62539830       0.80271500       0.83623800
    62  Br         0.37460170       0.80271500       0.66376200
    63  Br         0.12539830       0.30271500       0.83623800
    64  Br         0.87460170       0.30271500       0.66376200
    65  F          0.37805400       0.80294000       0.35810140
    66  F          0.62194600       0.80294000       0.14189860
    67  F          0.87805400       0.30294000       0.35810140
    68  F          0.12194600       0.30294000       0.14189860
    69  F          0.62194600       0.19706000       0.64189860
    70  F          0.37805400       0.19706000       0.85810140
    71  F          0.12194600       0.69706000       0.64189860
    72  F          0.87805400       0.69706000       0.85810140
    73  F          0.44328400       0.07293000       0.03204130
    74  F          0.55671600       0.07293000       0.46795870
    75  F          0.94328400       0.57293000       0.03204130
    76  F          0.05671600       0.57293000       0.46795870
    77  F          0.55671600       0.92707000       0.96795870
    78  F          0.44328400       0.92707000       0.53204130
    79  F          0.05671600       0.42707000       0.96795870
    80  F          0.94328400       0.42707000       0.53204130
    81  F          0.49270400       0.71433000       0.07112150
    82  F          0.50729600       0.71433000       0.42887850
    83  F          0.99270400       0.21433000       0.07112150
    84  F          0.00729600       0.21433000       0.42887850
    85  F          0.50729600       0.28567000       0.92887850
    86  F          0.49270400       0.28567000       0.57112150
    87  F          0.00729600       0.78567000       0.92887850
    88  F          0.99270400       0.78567000       0.57112150
    89  F          0.42756400       0.44063000       0.39714140
    90  F          0.57243600       0.44063000       0.10285860
    91  F          0.92756400       0.94063000       0.39714140
    92  F          0.07243600       0.94063000       0.10285860
    93  F          0.57243600       0.55937000       0.60285860
    94  F          0.42756400       0.55937000       0.89714140
    95  F          0.07243600       0.05937000       0.60285860
    96  F          0.92756400       0.05937000       0.89714140
    97  C          0.32694800       0.69366000      -0.00553000
    98  C          0.67305200       0.69366000       0.50553000
    99  C          0.82694800       0.19366000      -0.00553000
   100  C          0.17305200       0.19366000       0.50553000
   101  C          0.67305200       0.30634000       0.00553000
   102  C          0.32694800       0.30634000       0.49447000
   103  C          0.17305200       0.80634000       0.00553000
   104  C          0.82694800       0.80634000       0.49447000
   105  H          0.34410000       0.61850000       0.94410000
   106  H          0.65590000       0.61850000       0.55590000
   107  H          0.84410000       0.11850000       0.94410000
   108  H          0.15590000       0.11850000       0.55590000
   109  H          0.65590000       0.38150000       0.05590000
   110  H          0.34410000       0.38150000       0.44410000
   111  H          0.15590000       0.88150000       0.05590000
   112  H          0.84410000       0.88150000       0.44410000
   113  C          0.30656800       0.88916000       0.95257000
   114  C          0.69343200       0.88916000       0.54743000
   115  C          0.80656800       0.38916000       0.95257000
   116  C          0.19343200       0.38916000       0.54743000
   117  C          0.69343200       0.11084000       0.04743000
   118  C          0.30656800       0.11084000       0.45257000
   119  C          0.19343200       0.61084000       0.04743000
   120  C          0.80656800       0.61084000       0.45257000
   121  H          0.30960000       0.94770000       0.87550000
   122  H          0.69040000       0.94770000       0.62450000
   123  H          0.80960000       0.44770000       0.87550000
   124  H          0.19040000       0.44770000       0.62450000
   125  H          0.69040000       0.05230000       0.12450000
   126  H          0.30960000       0.05230000       0.37550000
   127  H          0.19040000       0.55230000       0.12450000
   128  H          0.80960000       0.55230000       0.37550000
   129  C          0.28157700      -0.00045000       0.02383000
   130  C          0.71842300      -0.00045000       0.47617000
   131  C          0.78157700       0.49955000       0.02383000
   132  C          0.21842300       0.49955000       0.47617000
   133  C          0.71842300       0.00045000       0.97617000
   134  C          0.28157700       0.00045000       0.52383000
   135  C          0.21842300       0.50045000       0.97617000
   136  C          0.78157700       0.50045000       0.52383000
   137  C          0.27829700       0.90886000       0.13573000
   138  C          0.72170300       0.90886000       0.36427000
   139  C          0.77829700       0.40886000       0.13573000
   140  C          0.22170300       0.40886000       0.36427000
   141  C          0.72170300       0.09114000       0.86427000
   142  C          0.27829700       0.09114000       0.63573000
   143  C          0.22170300       0.59114000       0.86427000
   144  C          0.77829700       0.59114000       0.63573000
   145  H          0.26140000      -0.01870000       0.18760000
   146  H          0.73860000      -0.01870000       0.31240000
   147  H          0.76140000       0.48130000       0.18760000
   148  H          0.23860000       0.48130000       0.31240000
   149  H          0.73860000       0.01870000       0.81240000
   150  H          0.26140000       0.01870000       0.68760000
   151  H          0.23860000       0.51870000       0.81240000
   152  H          0.76140000       0.51870000       0.68760000
   153  C          0.30016800       0.71096000       0.16973000
   154  C          0.69983200       0.71096000       0.33027000
   155  C          0.80016800       0.21096000       0.16973000
   156  C          0.19983200       0.21096000       0.33027000
   157  C          0.69983200       0.28904000       0.83027000
   158  C          0.30016800       0.28904000       0.66973000
   159  C          0.19983200       0.78904000       0.83027000
   160  C          0.80016800       0.78904000       0.66973000
   161  H          0.29780000       0.64870000       0.24650000
   162  H          0.70220000       0.64870000       0.25350000
   163  H          0.79780000       0.14870000       0.24650000
   164  H          0.20220000       0.14870000       0.25350000
   165  H          0.70220000       0.35130000       0.75350000
   166  H          0.29780000       0.35130000       0.74650000
   167  H          0.20220000       0.85130000       0.75350000
   168  H          0.79780000       0.85130000       0.74650000
   169  N          0.32444600       0.60125000       0.10152000
   170  N          0.67555400       0.60125000       0.39848000
   171  N          0.82444600       0.10125000       0.10152000
   172  N          0.17555400       0.10125000       0.39848000
   173  N          0.67555400       0.39875000       0.89848000
   174  N          0.32444600       0.39875000       0.60152000
   175  N          0.17555400       0.89875000       0.89848000
   176  N          0.82444600       0.89875000       0.60152000
   177  N          0.26065700       0.20835000       0.96608000
   178  N          0.73934300       0.20835000       0.53392000
   179  N          0.76065700       0.70835000       0.96608000
   180  N          0.23934300       0.70835000       0.53392000
   181  N          0.73934300       0.79165000       0.03392000
   182  N          0.26065700       0.79165000       0.46608000
   183  N          0.23934300       0.29165000       0.03392000
   184  N          0.76065700       0.29165000       0.46608000
