data_FOHQIE
_symmetry_space_group_name_H-M    'P1'
_symmetry_Int_Tables_number       1
loop_
_symmetry_equiv_pos_site_id
_symmetry_equiv_pos_as_xyz
1 x,y,z
_cell_length_a                   6.082811
_cell_length_b                   8.313315
_cell_length_c                   12.1572
_cell_angle_alpha                70.1372
_cell_angle_beta                 84.7222
_cell_angle_gamma                79.9992
loop_
_atom_site_label
_atom_site_type_symbol
_atom_site_fract_x
_atom_site_fract_y
_atom_site_fract_z
     1  Br         0.30114400       0.69017300       0.26696200
     2  Br         0.69885600       0.30982700       0.73303800
     3  F          0.78232000       0.60972160       0.18349120
     4  F          0.21768000       0.39027840       0.81650880
     5  F          0.26612000       0.36456170       0.48233120
     6  F          0.73388000       0.63543830       0.51766880
     7  F          0.56582000       0.08808160       0.56873110
     8  F          0.43418000       0.91191840       0.43126890
     9  F          0.08882000       0.33300170       0.27051120
    10  F          0.91118000       0.66699830       0.72948880
    11  N          0.02343000       0.06512000       0.45909180
    12  N          0.97657000       0.93488000       0.54090820
    13  C          0.46894000       0.35703000       0.42802000
    14  C          0.53106000       0.64297000       0.57198000
    15  C          0.88704000       0.33923000       0.32422000
    16  C          0.11296000       0.66077000       0.67578000
    17  C          0.51524000       0.49353000       0.33012000
    18  C          0.48476000       0.50647000       0.66988000
    19  C          0.62624000       0.21333000       0.47318190
    20  C          0.37376000       0.78667000       0.52681810
    21  C          0.84134000       0.19993000       0.42272000
    22  C          0.15866000       0.80007000       0.57728000
    23  C          0.72794000       0.48133000       0.27909190
    24  C          0.27206000       0.51867000       0.72090810
    25  N          0.00763000       0.01362000       0.82788180
    26  N         -0.00763000       0.98638000       0.17211820
    27  C          0.33744000       0.72443000       0.91592000
    28  C          0.66256000       0.27557000       0.08408000
    29  C          0.21494000       0.00793000       0.78122000
    30  C          0.78506000      -0.00793000       0.21878000
    31  H          0.24900000       0.10440000       0.71670000
    32  H          0.75100000       0.89560000       0.28330000
    33  C          0.96536000       0.87613000       0.91912000
    34  C          0.03464000       0.12387000       0.08088000
    35  H          0.81940000       0.87840000       0.95440000
    36  H          0.18060000       0.12160000       0.04560000
    37  C          0.51244000       0.57423000       0.95792000
    38  C          0.48756000       0.42577000       0.04208000
    39  H          0.65680000       0.58390000       0.92140000
    40  H          0.34320000       0.41610000       0.07860000
    41  C          0.38364000       0.86883000       0.82182000
    42  C          0.61636000       0.13117000       0.17818000
    43  H          0.52910000       0.87180000       0.78600000
    44  H          0.47090000       0.12820000       0.21400000
    45  C          0.12174000       0.73063000       0.96512000
    46  C          0.87826000       0.26937000       0.03488000
    47  H          0.08210000       0.63610000       0.02960000
    48  H          0.91790000       0.36390000       0.97040000
