data_FOMYAJ
_symmetry_space_group_name_H-M    'P1'
_symmetry_Int_Tables_number       1
loop_
_symmetry_equiv_pos_site_id
_symmetry_equiv_pos_as_xyz
1 x,y,z
_cell_length_a                   13.27652
_cell_length_b                   15.91872
_cell_length_c                   14.69172
_cell_angle_alpha                90.0
_cell_angle_beta                 102.4378
_cell_angle_gamma                90.0
loop_
_atom_site_label
_atom_site_type_symbol
_atom_site_fract_x
_atom_site_fract_y
_atom_site_fract_z
     1  Br         0.07535500       0.22850130       0.91894400
     2  Br         0.92464500       0.72850130       0.08105600
     3  Br         0.43777400       0.72479130       0.59466400
     4  Br         0.56222600       0.22479130       0.40533600
     5  I          0.07594800       0.85998400      -0.00033300
     6  I          0.92405200       0.35998400       0.00033300
     7  I          0.07014800       0.59299400      -0.00163300
     8  I          0.92985200       0.09299400       0.00163300
     9  F          0.01729000       0.96277000       0.81047000
    10  F          0.98271000       0.46277000       0.18953000
    11  F          0.11628000       0.07156000       0.72327000
    12  F          0.88372000       0.57156000       0.27673000
    13  F          0.31108000       0.93336000       0.05458000
    14  F          0.68892000       0.43336000       0.94542000
    15  F          0.41028000       0.04846000       0.96879000
    16  F          0.58972000       0.54846000       0.03121000
    17  F          0.12099000       0.38306000       0.72677000
    18  F          0.87901000       0.88306000       0.27323000
    19  F          0.01428000       0.49167000       0.80538000
    20  F          0.98572000      -0.00833000       0.19462000
    21  F          0.40679000       0.41316000       0.97401000
    22  F          0.59321000       0.91316000       0.02599000
    23  F          0.30039000       0.51856000       0.05728000
    24  F          0.69961000       0.01856000       0.94272000
    25  O          0.32209000       0.11696000       0.80559000
    26  O          0.67791000       0.61696000       0.19441000
    27  O          0.31961000       0.34566000       0.79728000
    28  O          0.68039000       0.84566000       0.20272000
    29  C          0.15781400       0.94728000       0.93421100
    30  C          0.84218600       0.44728000       0.06578900
    31  C          0.11391300       0.98509000       0.85241200
    32  C          0.88608700       0.48509000       0.14758800
    33  C          0.16861400       0.03909000       0.80931200
    34  C          0.83138600       0.53909000       0.19068800
    35  C          0.26701400       0.06308000       0.84761300
    36  C          0.73298600       0.56308000       0.15238700
    37  C          0.31331300       0.02719000       0.93201300
    38  C          0.68668700       0.52719000       0.06798700
    39  C          0.26101200       0.96929000       0.97161000
    40  C          0.73898800       0.46929000       0.02839000
    41  C          0.28168000       0.20094000       0.77606000
    42  C          0.71832000       0.70094000       0.22394000
    43  H          0.21250000       0.20690000       0.78900000
    44  H          0.78750000       0.70690000       0.21100000
    45  C          0.27357000       0.20748000       0.66965000
    46  C          0.72643000       0.70748000       0.33035000
    47  H          0.22570000       0.16600000       0.63830000
    48  H          0.77430000       0.66600000       0.36170000
    49  H          0.34010000       0.19770000       0.65600000
    50  H          0.65990000       0.69770000       0.34400000
    51  H          0.24960000       0.26240000       0.64850000
    52  H          0.75040000       0.76240000       0.35150000
    53  C          0.35238000       0.26226000       0.83397000
    54  C          0.64762000       0.76226000       0.16603000
    55  H          0.34560000       0.25820000       0.89890000
    56  H          0.65440000       0.75820000       0.10110000
    57  C          0.46467000       0.25437000       0.82909000
    58  C          0.53533000       0.75437000       0.17091000
    59  H          0.50450000       0.29540000       0.86910000
    60  H          0.49550000       0.79540000       0.13090000
    61  H          0.47160000       0.26330000       0.76610000
    62  H          0.52840000       0.76330000       0.23390000
    63  H          0.48900000       0.19910000       0.84890000
    64  H          0.51100000       0.69910000       0.15110000
    65  C          0.26481400       0.39188000       0.84641100
    66  C          0.73518600       0.89188000       0.15358900
    67  C          0.16291300       0.41429000       0.80741100
    68  C          0.83708700       0.91429000       0.19258900
    69  C          0.11201400       0.47389000       0.84991200
    70  C          0.88798600       0.97389000       0.15008800
    71  C          0.15511200       0.50808000       0.93721100
    72  C          0.84488800       0.00808000       0.06278900
    73  C          0.25191400       0.48578000       0.97741200
    74  C          0.74808600       0.98578000       0.02258800
    75  C          0.30791300       0.42989000       0.93151300
    76  C          0.69208700       0.92989000       0.06848700
    77  I          0.46065800       0.35458400       0.53252700
    78  I          0.53934200       0.85458400       0.46747300
    79  I          0.46135800       0.09223400       0.52850700
    80  I          0.53864200       0.59223400       0.47149300
    81  F          0.23218000       0.42877000       0.52018000
    82  F          0.76782000       0.92877000       0.47982000
    83  F          0.15568000       0.54536000       0.61839000
    84  F          0.84432000       0.04536000       0.38161000
    85  F          0.56058000       0.45516000       0.71968000
    86  F          0.43942000       0.95516000       0.28032000
    87  F          0.48188000       0.56536000       0.82297000
    88  F          0.51812000       0.06536000       0.17703000
    89  F          0.23511000       0.01178000       0.50978000
    90  F          0.76489000       0.51178000       0.49022000
    91  F          0.16011000       0.90188000       0.61461000
    92  F          0.83989000       0.40188000       0.38539000
    93  F          0.55538000      -0.00432000       0.71809000
    94  F          0.44462000       0.49568000       0.28191000
    95  F          0.47829000       0.88637000       0.82368000
    96  F          0.52171000       0.38637000       0.17632000
    97  O          0.27429000       0.61126000       0.77809000
    98  O          0.72571000       0.11126000       0.22191000
    99  O          0.27481000       0.84086000       0.77818000
   100  O          0.72519000       0.34086000       0.22182000
   101  C          0.40011200       0.44217000       0.61521000
   102  C          0.59988800       0.94217000       0.38479000
   103  C          0.29211400       0.46439000       0.59231300
   104  C          0.70788600       0.96439000       0.40768700
   105  C          0.25671200       0.52539000       0.64721300
   106  C          0.74328800       0.02539000       0.35278700
   107  C          0.31771300       0.56088000       0.72491000
   108  C          0.68228700       0.06088000       0.27509000
   109  C          0.42251200       0.53368000       0.74851100
   110  C          0.57748800       0.03368000       0.25148900
   111  C          0.45941300       0.47709000       0.69121200
   112  C          0.54058700       0.97709000       0.30878800
   113  C          0.24007000       0.75675000       0.74666000
   114  C          0.75993000       0.25675000       0.25334000
   115  H          0.24090000       0.75100000       0.68040000
   116  H          0.75910000       0.25100000       0.31960000
   117  C          0.13147000       0.74776000       0.75897000
   118  C          0.86853000       0.24776000       0.24103000
   119  H          0.08830000       0.78850000       0.72090000
   120  H          0.91170000       0.28850000       0.27910000
   121  H          0.12950000       0.75660000       0.82310000
   122  H          0.87050000       0.25660000       0.17690000
   123  H          0.10670000       0.69220000       0.74040000
   124  H          0.89330000       0.19220000       0.25960000
   125  C          0.31607000       0.69465000       0.80266000
   126  C          0.68393000       0.19465000       0.19734000
   127  H          0.38230000       0.69980000       0.78400000
   128  H          0.61770000       0.19980000       0.21600000
   129  C          0.33378000       0.70356000       0.90855000
   130  C          0.66622000       0.20356000       0.09145000
   131  H          0.38300000       0.66230000       0.93780000
   132  H          0.61700000       0.16230000       0.06220000
   133  H          0.26980000       0.69520000       0.92770000
   134  H          0.73020000       0.19520000       0.07230000
   135  H          0.35970000       0.75870000       0.92650000
   136  H          0.64030000       0.25870000       0.07350000
   137  C          0.31731400       0.89118000       0.71821200
   138  C          0.68268600       0.39118000       0.28178800
   139  C          0.25911300       0.92581000       0.63791200
   140  C          0.74088700       0.42581000       0.36208800
   141  C          0.30371200       0.97911000       0.58991100
   142  C          0.69628800       0.47911000       0.41008900
   143  C          0.39741300       0.00658000       0.60961100
   144  C          0.60258700       0.50658000       0.39038900
   145  C          0.45741300       0.97371000       0.69191200
   146  C          0.54258700       0.47371000       0.30808800
   147  C          0.41471400       0.91669000       0.74191100
   148  C          0.58528600       0.41669000       0.25808900
   149  N          0.23954000       0.22631100       0.22393000
   150  N          0.76046000       0.72631100       0.77607000
   151  C          0.26116000       0.22220000       0.32985000
   152  C          0.73884000       0.72220000       0.67015000
   153  H          0.29850000       0.17070000       0.34970000
   154  H          0.70150000       0.67070000       0.65030000
   155  H          0.30570000       0.26870000       0.35460000
   156  H          0.69430000       0.76870000       0.64540000
   157  C          0.16767000       0.22530000       0.37206000
   158  C          0.83233000       0.72530000       0.62794000
   159  H          0.18870000       0.22100000       0.43860000
   160  H          0.81130000       0.72100000       0.56140000
   161  H          0.12300000       0.17860000       0.34890000
   162  H          0.87700000       0.67860000       0.65110000
   163  H          0.13150000       0.27680000       0.35560000
   164  H          0.86850000       0.77680000       0.64440000
   165  C          0.17721200       0.30051100       0.18301200
   166  C          0.82278800       0.80051100       0.81698800
   167  H          0.10960000       0.29630000       0.19770000
   168  H          0.89040000       0.79630000       0.80230000
   169  H          0.16760000       0.29770000       0.11570000
   170  H          0.83240000       0.79770000       0.88430000
   171  C          0.22220000       0.38541500       0.21530000
   172  C          0.77780000       0.88541500       0.78470000
   173  H          0.17640000       0.42870000       0.18490000
   174  H          0.82360000       0.92870000       0.81510000
   175  H          0.28800000       0.39150000       0.19870000
   176  H          0.71200000       0.89150000       0.80130000
   177  H          0.23020000       0.39000000       0.28120000
   178  H          0.76980000       0.89000000       0.71880000
   179  C          0.17561400       0.15091100       0.18301500
   180  C          0.82438600       0.65091100       0.81698500
   181  H          0.15790000       0.15660000       0.11570000
   182  H          0.84210000       0.65660000       0.88430000
   183  H          0.11180000       0.15080000       0.20510000
   184  H          0.88820000       0.65080000       0.79490000
   185  C          0.23020000       0.06621400       0.20781800
   186  C          0.76980000       0.56621400       0.79218200
   187  H          0.18690000       0.02160000       0.17790000
   188  H          0.81310000       0.52160000       0.82210000
   189  H          0.24450000       0.05830000       0.27410000
   190  H          0.75550000       0.55830000       0.72590000
   191  H          0.29410000       0.06580000       0.18670000
   192  H          0.70590000       0.56580000       0.81330000
   193  C          0.34485000       0.23141600       0.19785000
   194  C          0.65515000       0.73141600       0.80215000
   195  H          0.37770000       0.28350000       0.22230000
   196  H          0.62230000       0.78350000       0.77770000
   197  H          0.38720000       0.18570000       0.22840000
   198  H          0.61280000       0.68570000       0.77160000
   199  C          0.34316000       0.22820000       0.09565000
   200  C          0.65684000       0.72820000       0.90435000
   201  H          0.41250000       0.23020000       0.08630000
   202  H          0.58750000       0.73020000       0.91370000
   203  H          0.30420000       0.27410000       0.06460000
   204  H          0.69580000       0.77410000       0.93540000
   205  H          0.31170000       0.17590000       0.07030000
   206  H          0.68830000       0.67590000       0.92970000
   207  N          0.82405000       0.22231200       0.66124000
   208  N          0.17595000       0.72231200       0.33876000
   209  C          0.77820000       0.15091400       0.60621900
   210  C          0.22180000       0.65091400       0.39378100
   211  H          0.78280000       0.15790000       0.54180000
   212  H          0.21720000       0.65790000       0.45820000
   213  H          0.70510000       0.14680000       0.60800000
   214  H          0.29490000       0.64680000       0.39200000
   215  C          0.83740000       0.06741400       0.64920000
   216  C          0.16260000       0.56741400       0.35080000
   217  H          0.80360000       0.01910000       0.61660000
   218  H          0.19640000       0.51910000       0.38340000
   219  H          0.83670000       0.06340000       0.71380000
   220  H          0.16330000       0.56340000       0.28620000
   221  H          0.90730000       0.06960000       0.64110000
   222  H          0.09270000       0.56960000       0.35890000
   223  C          0.82009000       0.23220000       0.76457000
   224  C          0.17991000       0.73220000       0.23543000
   225  H          0.83740000       0.28890000       0.78460000
   226  H          0.16260000       0.78890000       0.21540000
   227  H          0.87040000       0.19450000       0.80190000
   228  H          0.12960000       0.69450000       0.19810000
   229  C          0.70949000       0.21030000       0.77931200
   230  C          0.29051000       0.71030000       0.22068800
   231  H          0.70910000       0.21230000       0.84450000
   232  H          0.29090000       0.71230000       0.15550000
   233  H          0.69110000       0.15390000       0.75660000
   234  H          0.30890000       0.65390000       0.24340000
   235  H          0.66040000       0.24910000       0.74590000
   236  H          0.33960000       0.74910000       0.25410000
   237  C          0.93049000       0.23820000       0.66518000
   238  C          0.06951000       0.73820000       0.33482000
   239  H          0.97270000       0.20310000       0.71250000
   240  H          0.02730000       0.70310000       0.28750000
   241  H          0.94650000       0.29640000       0.68050000
   242  H          0.05350000       0.79640000       0.31950000
   243  C          0.95411200       0.21540000       0.55809000
   244  C          0.04588800       0.71540000       0.44191000
   245  H          0.02660000       0.22060000       0.56000000
   246  H          0.97340000       0.72060000       0.44000000
   247  H          0.91620000       0.25290000       0.51250000
   248  H          0.08380000       0.75290000       0.48750000
   249  H          0.93290000       0.15830000       0.54140000
   250  H          0.06710000       0.65830000       0.45860000
   251  C          0.75320000       0.29601300       0.62221700
   252  C          0.24680000       0.79601300       0.37778300
   253  H          0.68620000       0.28800000       0.63790000
   254  H          0.31380000       0.78800000       0.36210000
   255  H          0.74250000       0.29660000       0.55480000
   256  H          0.25750000       0.79660000       0.44520000
   257  C          0.79830000       0.38121500       0.66120000
   258  C          0.20170000       0.88121500       0.33880000
   259  H          0.75220000       0.42560000       0.63450000
   260  H          0.24780000       0.92560000       0.36550000
   261  H          0.86400000       0.38940000       0.64560000
   262  H          0.13600000       0.88940000       0.35440000
   263  H          0.80630000       0.38150000       0.72770000
   264  H          0.19370000       0.88150000       0.27230000
