data_FONTUB
_symmetry_space_group_name_H-M    'P1'
_symmetry_Int_Tables_number       1
loop_
_symmetry_equiv_pos_site_id
_symmetry_equiv_pos_as_xyz
1 x,y,z
_cell_length_a                   15.8532
_cell_length_b                   7.65576
_cell_length_c                   18.8553
_cell_angle_alpha                90.0
_cell_angle_beta                 108.56615
_cell_angle_gamma                90.0
loop_
_atom_site_label
_atom_site_type_symbol
_atom_site_fract_x
_atom_site_fract_y
_atom_site_fract_z
     1  Br         0.96360200       0.23820400       0.16248218
     2  Br         0.53639800       0.73820400       0.33751782
     3  Br         0.03639800       0.76179600       0.83751782
     4  Br         0.46360200       0.26179600       0.66248218
     5  Br         0.34906200       0.54990600       0.11421719
     6  Br         0.15093800       0.04990600       0.38578281
     7  Br         0.65093800       0.45009400       0.88578281
     8  Br         0.84906200       0.95009400       0.61421719
     9  F          0.66776130       0.57258000       0.09672120
    10  F          0.83223870       0.07258000       0.40327880
    11  F          0.33223870       0.42742000       0.90327880
    12  F          0.16776130       0.92742000       0.59672120
    13  F          0.40068120       0.92688000       0.15100110
    14  F          0.09931880       0.42688000       0.34899890
    15  F          0.59931880       0.07312000       0.84899890
    16  F          0.90068120       0.57312000       0.65100110
    17  F          0.51483140       0.41028000       0.08218110
    18  F          0.98516860       0.91028000       0.41781890
    19  F          0.48516860       0.58972000       0.91781890
    20  F          0.01483140       0.08972000       0.58218110
    21  F          0.55222120       0.09122000       0.16290100
    22  F          0.94777880       0.59122000       0.33709900
    23  F          0.44777880       0.90878000       0.83709900
    24  F          0.05222120       0.40878000       0.66290100
    25  C          0.54452000       0.92276000       0.14294170
    26  C          0.95548000       0.42276000       0.35705830
    27  C          0.45548000       0.07724000       0.85705830
    28  C          0.04452000       0.57724000       0.64294170
    29  C          0.52372000       0.57846000       0.10307180
    30  C          0.97628000       0.07846000       0.39692820
    31  C          0.47628000       0.42154000       0.89692820
    32  C          0.02372000       0.92154000       0.60307180
    33  C          0.69912000       0.93216000       0.13740160
    34  C          0.80088000       0.43216000       0.36259840
    35  C          0.30088000       0.06784000       0.86259840
    36  C          0.19912000       0.56784000       0.63740160
    37  C          0.61512000       0.83916000       0.13008160
    38  C          0.88488000       0.33916000       0.36991840
    39  C          0.38488000       0.16084000       0.86991840
    40  C          0.11512000       0.66084000       0.63008160
    41  C          0.60222000       0.66326000       0.11021180
    42  C          0.89778000       0.16326000       0.38978820
    43  C          0.39778000       0.33674000       0.88978820
    44  C          0.10222000       0.83674000       0.61021180
    45  C          0.46612000       0.83816000       0.13674170
    46  C          0.03388000       0.33816000       0.36325830
    47  C          0.53388000       0.16184000       0.86325830
    48  C          0.96612000       0.66184000       0.63674170
    49  F          0.77617120       0.30822000       0.05874100
    50  F          0.72382880       0.80822000       0.44125900
    51  F          0.22382880       0.69178000       0.94125900
    52  F          0.27617120       0.19178000       0.55874100
    53  F          0.78221130       0.73998000       0.23182110
    54  F          0.71778870       0.23998000       0.26817890
    55  F          0.21778870       0.26002000       0.76817890
    56  F          0.28221130       0.76002000       0.73182110
    57  F          0.93414120       0.90988000       0.24464100
    58  F          0.56585880       0.40988000       0.25535900
    59  F          0.06585880       0.09012000       0.75535900
    60  F          0.43414120       0.59012000       0.74464100
    61  F          0.62586120       0.13212000       0.04293100
    62  F          0.87413880       0.63212000       0.45706900
    63  F          0.37413880       0.86788000       0.95706900
    64  F          0.12586120       0.36788000       0.54293100
    65  C          0.70112000       0.07904000       0.09495170
    66  C          0.79888000       0.57904000       0.40504830
    67  C          0.29888000       0.92096000       0.90504830
    68  C          0.20112000       0.42096000       0.59495170
    69  C          0.85812000       0.96846000       0.19590170
    70  C          0.64188000       0.46846000       0.30409830
    71  C          0.14188000       0.03154000       0.80409830
    72  C          0.35812000       0.53154000       0.69590170
    73  C          0.45462000       0.66366000       0.11773160
    74  C          0.04538000       0.16366000       0.38226840
    75  C          0.54538000       0.33634000       0.88226840
    76  C          0.95462000       0.83634000       0.61773160
    77  C          0.77872000       0.16914000       0.10236170
    78  C          0.72128000       0.66914000       0.39763830
    79  C          0.22128000       0.83086000       0.89763830
    80  C          0.27872000       0.33086000       0.60236170
    81  C          0.85862000       0.11554000       0.15328170
    82  C          0.64138000       0.61554000       0.34671830
    83  C          0.14138000       0.88446000       0.84671830
    84  C          0.35862000       0.38446000       0.65328170
    85  C          0.78022000       0.88016000       0.18816170
    86  C          0.71978000       0.38016000       0.31183830
    87  C          0.21978000       0.11984000       0.81183830
    88  C          0.28022000       0.61984000       0.68816170
    89  C          0.81112000      -0.00344000       0.94254840
    90  C          0.68888000       0.49656000       0.55745160
    91  C          0.18888000       0.00344000       0.05745160
    92  C          0.31112000       0.50344000       0.44254840
    93  H          0.78080000       0.08000000       0.90790000
    94  H          0.71920000       0.58000000       0.59210000
    95  H          0.21920000       0.92000000       0.09210000
    96  H          0.28080000       0.42000000       0.40790000
    97  C          0.90589190       0.00124000       0.97037840
    98  C          0.59410810       0.50124000       0.52962160
    99  C          0.09410810      -0.00124000       0.02962160
   100  C          0.40589190       0.49876000       0.47037840
   101  C          0.88452000       0.22294000       0.81310830
   102  C          0.61548000       0.72294000       0.68689170
   103  C          0.11548000       0.77706000       0.18689170
   104  C          0.38452000       0.27706000       0.31310830
   105  H          0.89480000       0.11210000       0.79730000
   106  H          0.60520000       0.61210000       0.70270000
   107  H          0.10520000       0.88790000       0.20270000
   108  H          0.39480000       0.38790000       0.29730000
   109  C          0.90963190       0.26044000       0.88936830
   110  C          0.59036810       0.76044000       0.61063170
   111  C          0.09036810       0.73956000       0.11063170
   112  C          0.40963190       0.23956000       0.38936830
   113  C          0.95152000       0.87266000       0.02487150
   114  C          0.54848000       0.37266000       0.47512850
   115  C          0.04848000       0.12734000       0.97512850
   116  C          0.45152000       0.62734000       0.52487150
   117  C          0.95532000       0.12534000       0.94612840
   118  C          0.54468000       0.62534000       0.55387160
   119  C          0.04468000       0.87466000       0.05387160
   120  C          0.45532000       0.37466000       0.44612840
   121  C          0.89882000       0.74716000       0.04820160
   122  C          0.60118000       0.24716000       0.45179840
   123  C          0.10118000       0.25284000       0.95179840
   124  C          0.39882000       0.75284000       0.54820160
   125  H          0.92690000       0.66470000       0.08410000
   126  H          0.57310000       0.16470000       0.41590000
   127  H          0.07310000       0.33530000       0.91590000
   128  H          0.42690000       0.83530000       0.58410000
   129  C          0.84432000       0.34974000       0.76063830
   130  C          0.65568000       0.84974000       0.73936170
   131  C          0.15568000       0.65026000       0.23936170
   132  C          0.34432000       0.15026000       0.26063830
   133  H          0.82730000       0.32310000       0.70990000
   134  H          0.67270000       0.82310000       0.79010000
   135  H          0.17270000       0.67690000       0.29010000
   136  H          0.32730000       0.17690000       0.20990000
   137  C          0.76392000       0.87266000       0.96550840
   138  C          0.73608000       0.37266000       0.53449160
   139  C          0.23608000       0.12734000       0.03449160
   140  C          0.26392000       0.62734000       0.46550840
   141  H          0.70210000       0.87110000       0.94600000
   142  H          0.79790000       0.37110000       0.55400000
   143  H          0.29790000       0.12890000       0.05400000
   144  H          0.20210000       0.62890000       0.44600000
   145  C          0.85422000       0.55394000       0.85901820
   146  C          0.64578000       0.05394000       0.64098180
   147  C          0.14578000       0.44606000       0.14098180
   148  C          0.35422000       0.94606000       0.35901820
   149  H          0.84450000       0.66530000       0.87460000
   150  H          0.65550000       0.16530000       0.62540000
   151  H          0.15550000       0.33470000       0.12540000
   152  H          0.34450000       0.83470000       0.37460000
   153  C          0.89332000       0.42634000       0.91125830
   154  C          0.60668000       0.92634000       0.58874170
   155  C          0.10668000       0.57366000       0.08874170
   156  C          0.39332000       0.07366000       0.41125830
   157  H          0.90890000       0.45250000       0.96200000
   158  H          0.59110000       0.95250000       0.53800000
   159  H          0.09110000       0.54750000       0.03800000
   160  H          0.40890000       0.04750000       0.46200000
   161  C          0.80902000       0.74596000       0.01917160
   162  C          0.69098000       0.24596000       0.48082840
   163  C          0.19098000       0.25404000       0.98082840
   164  C          0.30902000       0.75404000       0.51917160
   165  H          0.77650000       0.66130000       0.03450000
   166  H          0.72350000       0.16130000       0.46550000
   167  H          0.22350000       0.33870000       0.96550000
   168  H          0.27650000       0.83870000       0.53450000
   169  C          0.82952000       0.51444000       0.78330820
   170  C          0.67048000       0.01444000       0.71669180
   171  C          0.17048000       0.48556000       0.21669180
   172  C          0.32952000      -0.01444000       0.28330820
   173  H          0.80300000       0.59920000       0.74790000
   174  H          0.69700000       0.09920000       0.75210000
   175  H          0.19700000       0.40080000       0.25210000
   176  H          0.30300000       0.90080000       0.24790000
