data_FONVEN
_symmetry_space_group_name_H-M    'P1'
_symmetry_Int_Tables_number       1
loop_
_symmetry_equiv_pos_site_id
_symmetry_equiv_pos_as_xyz
1 x,y,z
_cell_length_a                   7.61057
_cell_length_b                   8.721612
_cell_length_c                   10.14528
_cell_angle_alpha                108.1381
_cell_angle_beta                 95.1527
_cell_angle_gamma                93.1319
loop_
_atom_site_label
_atom_site_type_symbol
_atom_site_fract_x
_atom_site_fract_y
_atom_site_fract_z
     1  Br         0.21547400       0.78360400       0.66123400
     2  Br         0.78452600       0.21639600       0.33876600
     3  F          0.31952000       0.12102000       0.64805190
     4  F          0.68048000       0.87898000       0.35194810
     5  F          0.85748000       0.70192000       0.48310190
     6  F          0.14252000       0.29808000       0.51689810
     7  C          0.09134000       0.90724000       0.57003000
     8  C          0.90866000       0.09276000       0.42997000
     9  C          0.92896000       0.85004000       0.49293000
    10  C          0.07104000       0.14996000       0.50707000
    11  C          0.16064000       0.05974000       0.57553000
    12  C          0.83936000       0.94026000       0.42447000
    13  C          0.74484000       0.04554000       0.79573000
    14  C          0.25516000       0.95446000       0.20427000
    15  H          0.64840000       0.96950000       0.75670000
    16  H          0.35160000       0.03050000       0.24330000
    17  C          0.76214000       0.17934000       0.75433000
    18  C          0.23786000       0.82066000       0.24567000
    19  H          0.67750000       0.19410000       0.68820000
    20  H          0.32250000       0.80590000       0.31180000
    21  C          0.41394000       0.64594000       0.91753000
    22  C          0.58606000       0.35406000       0.08247000
    23  H          0.32090000       0.64730000       0.97140000
    24  H          0.67910000       0.35270000       0.02860000
    25  C          0.85254000       0.88384000       0.94373000
    26  C          0.14746000       0.11616000       0.05627000
    27  C          0.87143000       0.01894000       0.89783000
    28  C          0.12857000      -0.01894000       0.10217000
    29  C          0.90904000       0.29624000       0.81173000
    30  C          0.09096000       0.70376000       0.18827000
    31  H          0.92030000       0.38740000       0.78310000
    32  H          0.07970000       0.61260000       0.21690000
    33  C          0.68934000       0.64344000       0.75713000
    34  C          0.31066000       0.35656000       0.24287000
    35  H          0.78120000       0.64230000       0.70240000
    36  H          0.21880000       0.35770000       0.29760000
    37  C          0.02054000       0.13764000       0.95503000
    38  C         -0.02054000       0.86236000       0.04497000
    39  C          0.55684000       0.76204000       0.96723000
    40  C          0.44316000       0.23796000       0.03277000
    41  H          0.55920000       0.84060000       0.05390000
    42  H          0.44080000       0.15940000       0.94610000
    43  C          0.54504000       0.52774000       0.70873000
    44  C          0.45496000       0.47226000       0.29127000
    45  H          0.54080000       0.44950000       0.62160000
    46  H          0.45920000       0.55050000       0.37840000
    47  C          0.69604000       0.76114000       0.88793000
    48  C          0.30396000       0.23886000       0.11207000
    49  C          0.40834000       0.52864000       0.78923000
    50  C          0.59166000       0.47136000       0.21077000
    51  H          0.31270000       0.45040000       0.75710000
    52  H          0.68730000       0.54960000       0.24290000
    53  C          0.03294000       0.27574000       0.90803000
    54  C          0.96706000       0.72426000       0.09197000
    55  H          0.12820000       0.35340000       0.94430000
    56  H          0.87180000       0.64660000       0.05570000
