data_FOPWUD
_symmetry_space_group_name_H-M    'P1'
_symmetry_Int_Tables_number       1
loop_
_symmetry_equiv_pos_site_id
_symmetry_equiv_pos_as_xyz
1 x,y,z
_cell_length_a                   9.069418
_cell_length_b                   9.502619
_cell_length_c                   12.8233
_cell_angle_alpha                85.803
_cell_angle_beta                 72.973
_cell_angle_gamma                74.753
loop_
_atom_site_label
_atom_site_type_symbol
_atom_site_fract_x
_atom_site_fract_y
_atom_site_fract_z
     1  O          0.29362110       0.72830110       0.15244800
     2  O          0.70637890       0.27169890       0.84755200
     3  O          0.36111120       0.54248100       0.38674900
     4  O          0.63888880       0.45751900       0.61325100
     5  C          0.05624160       0.89596130       0.26437110
     6  C          0.94375840       0.10403870       0.73562890
     7  C          0.19506160       0.76289140       0.26243110
     8  C          0.80493840       0.23710860       0.73756890
     9  C          0.39198170       0.67838140       0.37158120
    10  C          0.60801830       0.32161860       0.62841880
    11  C          0.95242830       0.95493150       0.36316120
    12  C          0.04757170       0.04506850       0.63683880
    13  H          0.96800000       0.91150000       0.42950000
    14  H          0.03200000       0.08850000       0.57050000
    15  C          0.30822160       0.79116140       0.32003110
    16  C          0.69177840       0.20883860       0.67996890
    17  C          0.22741170       0.52402140       0.36388120
    18  C          0.77258830       0.47597860       0.63611880
    19  C          0.13736160       0.62894140       0.31092110
    20  C          0.86263840       0.37105860       0.68907890
    21  C          0.00357170       0.59919150       0.29425120
    22  C         -0.00357170       0.40080850       0.70574880
    23  H          0.93790000       0.67020000       0.25990000
    24  H          0.06210000       0.32980000       0.74010000
    25  C          0.51540170       0.69398160       0.40961130
    26  C          0.48459830       0.30601840       0.59038870
    27  H          0.57220000       0.61450000       0.44350000
    28  H          0.42780000       0.38550000       0.55650000
    29  C          0.18975180       0.39212150       0.39697130
    30  C          0.81024820       0.60787850       0.60302870
    31  H          0.25370000       0.32180000       0.43290000
    32  H          0.74630000       0.67820000       0.56710000
    33  C          0.79937830       0.14185150       0.27086130
    34  C          0.20062170       0.85814850       0.72913870
    35  C          0.34807180       0.92444160       0.31153130
    36  C          0.65192820       0.07555840       0.68846870
    37  H          0.29060000       0.00470000       0.27870000
    38  H          0.70940000      -0.00470000       0.72130000
    39  C          0.03017180       0.96205150       0.16923130
    40  C          0.96982820       0.03794850       0.83076870
    41  H          0.09990000       0.92420000       0.10070000
    42  H          0.90010000       0.07580000       0.89930000
    43  C          0.90286810       0.08337160       0.17294140
    44  C          0.09713190       0.91662840       0.82705860
    45  H          0.88700000       0.12680000       0.10670000
    46  H          0.11300000       0.87320000       0.89330000
    47  C          0.55444190       0.82617170       0.39755130
    48  C          0.44555810       0.17382830       0.60244870
    49  H          0.63990000       0.83760000       0.42210000
    50  H          0.36010000       0.16240000       0.57790000
    51  C          0.82649830       0.07623150       0.36618130
    52  C          0.17350170       0.92376850       0.63381870
    53  H          0.75760000       0.11510000       0.43470000
    54  H          0.24240000       0.88490000       0.56530000
    55  C          0.05914190       0.36428160       0.37719130
    56  C          0.94085810       0.63571840       0.62280870
    57  H          0.03390000       0.27350000       0.39820000
    58  H          0.96610000       0.72650000       0.60180000
    59  C          0.96421810       0.46797160       0.32676130
    60  C          0.03578190       0.53202840       0.67323870
    61  H          0.87270000       0.44940000       0.31450000
    62  H          0.12730000       0.55060000       0.68550000
    63  C          0.66063810       0.27258160       0.27324160
    64  C          0.33936190       0.72741840       0.72675840
    65  H          0.69370000       0.34010000       0.21490000
    66  H          0.30630000       0.65990000       0.78510000
    67  H          0.62620000       0.32210000       0.34390000
    68  H          0.37380000       0.67790000       0.65610000
    69  H          0.57210000       0.24020000       0.26240000
    70  H          0.42790000       0.75980000       0.73760000
    71  C          0.46952000       0.94221180       0.34985140
    72  C          0.53048000       0.05778820       0.65014860
    73  H          0.49460000       0.03400000       0.34340000
    74  H          0.50540000       0.96600000       0.65660000
    75  H          0.24201100       0.68111600       0.11527000
    76  H          0.75798900       0.31888400       0.88473000
    77  O          0.80522140       0.41262110       0.98569100
    78  O          0.19477860       0.58737890       0.01430900
    79  C          0.73869180       0.54170150       0.00527120
    80  C          0.26130820       0.45829850      -0.00527120
    81  C          0.66142000       0.85843160       0.01634150
    82  C          0.33858000       0.14156840       0.98365850
    83  H          0.68490000       0.95470000      -0.00250000
    84  H          0.31510000       0.04530000       0.00250000
    85  H          0.55200000       0.87470000       0.06630000
    86  H          0.44800000       0.12530000       0.93370000
    87  C          0.63866190       0.63236160       0.93878870
    88  C          0.36133810       0.36763840       0.06121130
    89  H          0.52470000       0.64410000       0.97870000
    90  H          0.47530000       0.35590000       0.02130000
    91  H          0.66020000       0.58100000       0.86940000
    92  H          0.33980000       0.41900000       0.13060000
    93  C          0.77882000       0.76710170       0.07291160
    94  C          0.22118000       0.23289830       0.92708840
    95  H          0.76890000       0.81710000       0.14060000
    96  H          0.23110000       0.18290000       0.85940000
    97  H          0.88870000       0.75670000       0.02480000
    98  H          0.11130000       0.24330000       0.97520000
    99  C          0.74902000       0.61623170       0.10084140
   100  C          0.25098000       0.38376830       0.89915860
   101  H          0.83630000       0.55490000       0.12820000
   102  H          0.16370000       0.44510000       0.87180000
   103  H          0.64820000       0.62590000       0.16010000
   104  H          0.35180000       0.37410000       0.83990000
   105  C          0.67102000       0.78328170       0.91357860
   106  C          0.32898000       0.21671830       0.08642140
   107  H          0.77830000       0.77300000       0.86170000
   108  H          0.22170000       0.22700000       0.13830000
   109  H          0.59190000       0.84390000       0.87860000
   110  H          0.40810000       0.15610000       0.12140000
