data_FOQRIO
_symmetry_space_group_name_H-M    'P1'
_symmetry_Int_Tables_number       1
loop_
_symmetry_equiv_pos_site_id
_symmetry_equiv_pos_as_xyz
1 x,y,z
_cell_length_a                   9.4447117
_cell_length_b                   10.3889619
_cell_length_c                   15.64893
_cell_angle_alpha                77.489215
_cell_angle_beta                 72.837816
_cell_angle_gamma                77.628516
loop_
_atom_site_label
_atom_site_type_symbol
_atom_site_fract_x
_atom_site_fract_y
_atom_site_fract_z
     1  C          0.01082000       0.35012000       0.33263150
     2  C          0.93072000       0.23462000       0.37290150
     3  C          0.80783000       0.09332000       0.46554160
     4  H          0.74960000       0.04760000       0.51720000
     5  C          0.83722000       0.93342000       0.35702160
     6  H          0.76220000       0.95620000       0.32190000
     7  C          0.98752000       0.86902000       0.30169150
     8  H          0.05200000       0.93520000       0.26720000
     9  C          0.05192000       0.77582000       0.37625150
    10  H          0.10670000       0.82460000       0.39950000
    11  C          0.91252000       0.73832000       0.45102160
    12  H          0.89140000       0.65270000       0.44520000
    13  C          0.93834000       0.72944000       0.54512000
    14  H          0.01720000       0.65480000       0.55370000
    15  H          0.97330000       0.81010000       0.54620000
    16  N          0.85302000       0.20802190       0.46109130
    17  N          0.85852000       0.05395180       0.38477130
    18  N          0.93732000       0.14396180       0.32324120
    19  N          0.02302000       0.42027190       0.39052140
    20  H          0.06970000       0.48780000       0.37100000
    21  H          0.98430000       0.39840000       0.44770000
    22  O          0.06286180       0.37425160       0.24943110
    23  O          0.78974170       0.84398150       0.43716110
    24  O          0.81223000       0.71363000       0.61725160
    25  H          0.83800000       0.66840000       0.66170000
    26  O          0.14813160       0.66138150       0.34542110
    27  H          0.23420000       0.66370000       0.34590000
    28  O          0.95498180       0.79666160       0.24434110
    29  H          0.02510000       0.73630000       0.23100000
    30  C          0.35952000       0.31502000       0.55302150
    31  C          0.30952000       0.30622000       0.65313150
    32  C          0.15893000       0.30762000       0.69768160
    33  H          0.08760000       0.31880000       0.66540000
    34  C          0.11693000       0.29172000       0.79189160
    35  C          0.22213000       0.27902000       0.83996160
    36  H          0.19230000       0.26990000       0.90290000
    37  C          0.37152000       0.28002000       0.79440150
    38  C          0.41802000       0.29212000       0.70029150
    39  H          0.51880000       0.29070000       0.66960000
    40  O          0.25929190       0.32312000       0.51118120
    41  H          0.30000000       0.31630000       0.45790000
    42  O          0.49660190       0.31412000       0.51357120
    43  O          0.47065180       0.26622180       0.84502110
    44  H          0.55290000       0.27970000       0.81150000
    45  O          0.96909810       0.28842000       0.83459120
    46  H          0.95620000       0.28220000       0.88940000
    47  C          0.49802000       0.30032000       0.29877150
    48  C          0.54932000       0.29572000       0.19941140
    49  C          0.70162000       0.28132000       0.15528150
    50  H          0.77310000       0.27110000       0.18730000
    51  C          0.74442000       0.28252000       0.06221150
    52  C          0.63662000       0.29742000       0.01452150
    53  H          0.66600000       0.29950000       0.95210000
    54  C          0.48502000       0.30922000       0.06064150
    55  C          0.44002000       0.30892000       0.15307150
    56  H          0.33870000       0.31740000       0.18380000
    57  O          0.36082000       0.31142000       0.33689130
    58  O          0.37516170       0.32408170       0.01682110
    59  H          0.41340000       0.30710000       0.96540000
    60  O          0.89056180       0.27222000       0.01394110
    61  H          0.94420000       0.26070000       0.04850000
    62  O          0.59805190       0.29452000       0.33967120
    63  H          0.55910000       0.28950000       0.39430000
    64  C          0.42222000       0.63442000       0.58393150
    65  C          0.36872000       0.62932000       0.68376150
    66  C          0.21763000       0.63592000       0.72674160
    67  H          0.14770000       0.64580000       0.69360000
    68  C          0.17203000       0.62762000       0.82035160
    69  C          0.27693000       0.61482000       0.86941160
    70  H          0.24590000       0.60920000       0.93210000
    71  C          0.42693000       0.61052000       0.82475150
    72  C          0.47572000       0.61662000       0.73101150
    73  H          0.57700000       0.61220000       0.70090000
    74  O          0.31515180       0.66612000       0.54157110
    75  H          0.35230000       0.66570000       0.48720000
    76  O          0.55504180       0.61058170       0.54408110
    77  O          0.52618180       0.59802000       0.87546110
    78  H          0.61160000       0.59600000       0.84210000
    79  O          0.02236190       0.63322000       0.86135120
    80  H          0.00900000       0.61960000       0.91650000
    81  C          0.55732000       0.63372000       0.32718150
    82  C          0.60702000       0.62702000       0.22907150
    83  C          0.75972000       0.61442000       0.18393150
    84  H          0.83150000       0.60780000       0.21520000
    85  C          0.80152000       0.61222000       0.09169150
    86  C          0.69472000       0.62032000       0.04468150
    87  H          0.72420000       0.61810000       0.98280000
    88  C          0.54332000       0.63182000       0.09141150
    89  C          0.49892000       0.63612000       0.18303150
    90  H          0.39760000       0.64500000       0.21380000
    91  O          0.66493180       0.61352000       0.36735110
    92  H          0.62860000       0.61330000       0.42190000
    93  O          0.42351180       0.65601180       0.36825110
    94  O          0.43341160       0.64053160       0.04888100
    95  H          0.47200000       0.62570000      -0.00310000
    96  O          0.94903170       0.60198180       0.04269110
    97  H          0.00110000       0.60900000       0.07460000
    98  C          0.29203000      -0.00038000       0.49970150
    99  C          0.24493000      -0.00878000       0.59976150
   100  C          0.35232000       0.97032000       0.64781150
   101  H          0.45380000       0.96380000       0.61780000
   102  C          0.30553000       0.95942000       0.74147160
   103  C          0.15473000       0.96672000       0.78664160
   104  H          0.12450000       0.95700000       0.84960000
   105  C          0.04863000      -0.01138000       0.73729160
   106  C          0.09173000       0.00172000       0.64372160
   107  H          0.02050000       0.01710000       0.61080000
   108  O          0.43575190      -0.00558000       0.46335120
   109  H          0.45390000      -0.00520000       0.40870000
   110  O          0.20083180       0.00852190       0.45516110
   111  O          0.89752810       0.00072000       0.77896120
   112  H          0.88490000       0.97420000       0.83360000
   113  O          0.40522170       0.94010170       0.79273110
   114  H          0.49050000       0.94000000       0.75940000
   115  C          0.43132000       0.98592000       0.24519150
   116  C          0.47822000       0.97622000       0.14784150
   117  C          0.37002000       0.98352000       0.10194150
   118  H          0.26860000      -0.00630000       0.13250000
   119  C          0.41483000       0.97552000       0.01068160
   120  C          0.56653000       0.96202000       0.96474850
   121  H          0.59650000       0.95710000       0.90320000
   122  C          0.67292000       0.95582000       0.01140150
   123  C          0.63142000       0.96112000       0.10297150
   124  H          0.70330000       0.95470000       0.13410000
   125  O          0.28579180       0.00932000       0.27946110
   126  H          0.26760000       0.01660000       0.33290000
   127  O          0.52260180       0.97387180       0.29020110
   128  O          0.82043180       0.94267190       0.96215890
   129  H          0.87350000       0.94720000      -0.00590000
   130  O          0.30607180       0.98212000       0.96811890
   131  H          0.34490000       0.97830000       0.91430000
   132  H          0.74570000       0.32260000       0.69140000
   133  H          0.80360000       0.29050000       0.77230000
   134  O          0.73802000       0.30873000       0.75440150
   135  H          0.23240000       0.60730000       0.11120000
   136  H          0.13340000       0.52440000       0.17430000
   137  O          0.13725180       0.60262160       0.14274110
   138  H         -0.00430000       0.89060000       0.11640000
   139  H          0.09550000       0.94040000       0.03930000
   140  O          0.00982000       0.92523000       0.05785150
   141  H          0.74550000       0.96040000       0.72730000
   142  H          0.72850000       0.87040000       0.66630000
   143  O          0.68912000       0.94222000       0.69471140
   144  O          0.08862190       0.23812000       0.10589120
   145  H          0.17950000       0.24750000       0.08030000
   146  H          0.06440000       0.25700000       0.15910000
   147  O          0.79142000       0.39412170       0.57675120
   148  H          0.80120000       0.31360000       0.55240000
   149  H          0.70190000       0.47250000       0.56640000
   150  O          0.81992000       0.56372000       0.78453130
   151  H          0.87610000       0.58910000       0.80900000
   152  H          0.83560000       0.47890000       0.79110000
