data_FOQYOB
_symmetry_space_group_name_H-M    'P1'
_symmetry_Int_Tables_number       1
loop_
_symmetry_equiv_pos_site_id
_symmetry_equiv_pos_as_xyz
1 x,y,z
_cell_length_a                   16.89628
_cell_length_b                   16.89628
_cell_length_c                   7.21198
_cell_angle_alpha                90.0
_cell_angle_beta                 90.0
_cell_angle_gamma                90.0
loop_
_atom_site_label
_atom_site_type_symbol
_atom_site_fract_x
_atom_site_fract_y
_atom_site_fract_z
     1  P          0.24198600       0.84729500       0.97297870
     2  P          0.75801400       0.15270500       0.97297870
     3  P          0.84729500       0.75801400       0.02702130
     4  P          0.15270500       0.24198600       0.02702130
     5  P          0.74198600       0.34729500       0.47297870
     6  P          0.25801400       0.65270500       0.47297870
     7  P          0.34729500       0.25801400       0.52702130
     8  P          0.65270500       0.74198600       0.52702130
     9  O          0.27849150       0.77661150       0.05594000
    10  O          0.72150850       0.22338850       0.05594000
    11  O          0.77661150       0.72150850       0.94406000
    12  O          0.22338850       0.27849150       0.94406000
    13  O          0.77849150       0.27661150       0.55594000
    14  O          0.22150850       0.72338850       0.55594000
    15  O          0.27661150       0.22150850       0.44406000
    16  O          0.72338850       0.77849150       0.44406000
    17  O          0.30082170       0.91259170       0.91955000
    18  O          0.69917830       0.08740830       0.91955000
    19  O          0.91259170       0.69917830       0.08045000
    20  O          0.08740830       0.30082170       0.08045000
    21  O          0.80082170       0.41259170       0.41955000
    22  O          0.19917830       0.58740830       0.41955000
    23  O          0.41259170       0.19917830       0.58045000
    24  O          0.58740830       0.80082170       0.58045000
    25  H          0.34430000       0.90530000       0.94620000
    26  H          0.65570000       0.09470000       0.94620000
    27  H          0.90530000       0.65570000       0.05380000
    28  H          0.09470000       0.34430000       0.05380000
    29  H          0.84430000       0.40530000       0.44620000
    30  H          0.15570000       0.59470000       0.44620000
    31  H          0.40530000       0.15570000       0.55380000
    32  H          0.59470000       0.84430000       0.55380000
    33  O          0.19203170       0.82932180       0.79816000
    34  O          0.80796830       0.17067820       0.79816000
    35  O          0.82932180       0.80796830       0.20184000
    36  O          0.17067820       0.19203170       0.20184000
    37  O          0.69203170       0.32932180       0.29816000
    38  O          0.30796830       0.67067820       0.29816000
    39  O          0.32932180       0.30796830       0.70184000
    40  O          0.67067820       0.69203170       0.70184000
    41  H          0.21130000       0.78830000       0.73120000
    42  H          0.78870000       0.21170000       0.73120000
    43  H          0.78830000       0.78870000       0.26880000
    44  H          0.21170000       0.21130000       0.26880000
    45  H          0.71130000       0.28830000       0.23120000
    46  H          0.28870000       0.71170000       0.23120000
    47  H          0.28830000       0.28870000       0.76880000
    48  H          0.71170000       0.71130000       0.76880000
    49  C         -0.00000000      -0.00000000       0.50000000
    50  C          0.50000000       0.50000000      -0.00000000
    51  C          0.06102180       0.95975180       0.37095000
    52  C          0.93897820       0.04024820       0.37095000
    53  C          0.95975180       0.93897820       0.62905000
    54  C          0.04024820       0.06102180       0.62905000
    55  C          0.56102180       0.45975180       0.87095000
    56  C          0.43897820       0.54024820       0.87095000
    57  C          0.45975180       0.43897820       0.12905000
    58  C          0.54024820       0.56102180       0.12905000
    59  C          0.08282000       0.88107190       0.38485000
    60  C          0.91718000       0.11892810       0.38485000
    61  C          0.88107190       0.91718000       0.61515000
    62  C          0.11892810       0.08282000       0.61515000
    63  C          0.58282000       0.38107190       0.88485000
    64  C          0.41718000       0.61892810       0.88485000
    65  C          0.38107190       0.41718000       0.11515000
    66  C          0.61892810       0.58282000       0.11515000
    67  H          0.06090000       0.84980000       0.47770000
    68  H          0.93910000       0.15020000       0.47770000
    69  H          0.84980000       0.93910000       0.52230000
    70  H          0.15020000       0.06090000       0.52230000
    71  H          0.56090000       0.34980000       0.97770000
    72  H          0.43910000       0.65020000       0.97770000
    73  H          0.34980000       0.43910000       0.02230000
    74  H          0.65020000       0.56090000       0.02230000
    75  C          0.13672000       0.84812000       0.26285000
    76  C          0.86328000       0.15188000       0.26285000
    77  C          0.84812000       0.86328000       0.73715000
    78  C          0.15188000       0.13672000       0.73715000
    79  C          0.63672000       0.34812000       0.76285000
    80  C          0.36328000       0.65188000       0.76285000
    81  C          0.34812000       0.36328000       0.23715000
    82  C          0.65188000       0.63672000       0.23715000
    83  H          0.14970000       0.79490000       0.27420000
    84  H          0.85030000       0.20510000       0.27420000
    85  H          0.79490000       0.85030000       0.72580000
    86  H          0.20510000       0.14970000       0.72580000
    87  H          0.64970000       0.29490000       0.77420000
    88  H          0.35030000       0.70510000       0.77420000
    89  H          0.29490000       0.35030000       0.22580000
    90  H          0.70510000       0.64970000       0.22580000
    91  C          0.17149190       0.89252000       0.12465000
    92  C          0.82850810       0.10748000       0.12465000
    93  C          0.89252000       0.82850810       0.87535000
    94  C          0.10748000       0.17149190       0.87535000
    95  C          0.67149190       0.39252000       0.62465000
    96  C          0.32850810       0.60748000       0.62465000
    97  C          0.39252000       0.32850810       0.37535000
    98  C          0.60748000       0.67149190       0.37535000
    99  C          0.15002000       0.97162000       0.11075000
   100  C          0.84998000       0.02838000       0.11075000
   101  C          0.97162000       0.84998000       0.88925000
   102  C          0.02838000       0.15002000       0.88925000
   103  C          0.65002000       0.47162000       0.61075000
   104  C          0.34998000       0.52838000       0.61075000
   105  C          0.47162000       0.34998000       0.38925000
   106  C          0.52838000       0.65002000       0.38925000
   107  H          0.17260000       0.00280000       0.01880000
   108  H          0.82740000      -0.00280000       0.01880000
   109  H          0.00280000       0.82740000      -0.01880000
   110  H         -0.00280000       0.17260000      -0.01880000
   111  H          0.67260000       0.50280000       0.51880000
   112  H          0.32740000       0.49720000       0.51880000
   113  H          0.50280000       0.32740000       0.48120000
   114  H          0.49720000       0.67260000       0.48120000
   115  C          0.09622000       0.00442000       0.22995000
   116  C          0.90378000      -0.00442000       0.22995000
   117  C          0.00442000       0.90378000       0.77005000
   118  C         -0.00442000       0.09622000       0.77005000
   119  C          0.59622000       0.50442000       0.72995000
   120  C          0.40378000       0.49558000       0.72995000
   121  C          0.50442000       0.40378000       0.27005000
   122  C          0.49558000       0.59622000       0.27005000
   123  H          0.08270000       0.05740000       0.21680000
   124  H          0.91730000       0.94260000       0.21680000
   125  H          0.05740000       0.91730000       0.78320000
   126  H          0.94260000       0.08270000       0.78320000
   127  H          0.58270000       0.55740000       0.71680000
   128  H          0.41730000       0.44260000       0.71680000
   129  H          0.55740000       0.41730000       0.28320000
   130  H          0.44260000       0.58270000       0.28320000
   131  H          0.65570000       0.09530000       0.94620000
   132  H          0.34430000       0.90470000       0.94620000
   133  H          0.09530000       0.34430000       0.05380000
   134  H          0.90470000       0.65570000       0.05380000
   135  H          0.15570000       0.59530000       0.44620000
   136  H          0.84430000       0.40470000       0.44620000
   137  H          0.59530000       0.84430000       0.55380000
   138  H          0.40470000       0.15570000       0.55380000
   139  H          0.78870000       0.21230000       0.73120000
   140  H          0.21130000       0.78770000       0.73120000
   141  H          0.21230000       0.21130000       0.26880000
   142  H          0.78770000       0.78870000       0.26880000
   143  H          0.28870000       0.71230000       0.23120000
   144  H          0.71130000       0.28770000       0.23120000
   145  H          0.71230000       0.71130000       0.76880000
   146  H          0.28770000       0.28870000       0.76880000
   147  H          0.90470000       0.65630000       0.05380000
   148  H          0.09530000       0.34370000       0.05380000
   149  H          0.65630000       0.09530000       0.94620000
   150  H          0.34370000       0.90470000       0.94620000
   151  H          0.40470000       0.15630000       0.55380000
   152  H          0.59530000       0.84370000       0.55380000
   153  H          0.15630000       0.59530000       0.44620000
   154  H          0.84370000       0.40470000       0.44620000
   155  H          0.78770000       0.78930000       0.26880000
   156  H          0.21230000       0.21070000       0.26880000
   157  H          0.78930000       0.21230000       0.73120000
   158  H          0.21070000       0.78770000       0.73120000
   159  H          0.28770000       0.28930000       0.76880000
   160  H          0.71230000       0.71070000       0.76880000
   161  H          0.28930000       0.71230000       0.23120000
   162  H          0.71070000       0.28770000       0.23120000
   163  C          0.04257190       0.51162000      -0.00965000
   164  C          0.95742810       0.48838000      -0.00965000
   165  C          0.51162000       0.95742810       0.00965000
   166  C          0.48838000       0.04257190       0.00965000
   167  C          0.54257190       0.01162000       0.49035000
   168  C          0.45742810       0.98838000       0.49035000
   169  C          0.01162000       0.45742810       0.50965000
   170  C          0.98838000       0.54257190       0.50965000
   171  N          0.09561170       0.45378160       0.01385000
   172  N          0.90438830       0.54621840       0.01385000
   173  N          0.45378160       0.90438830      -0.01385000
   174  N          0.54621840       0.09561170      -0.01385000
   175  N          0.59561170       0.95378160       0.51385000
   176  N          0.40438830       0.04621840       0.51385000
   177  N          0.95378160       0.40438830       0.48615000
   178  N          0.04621840       0.59561170       0.48615000
   179  C          0.17252000       0.47272000       0.00917000
   180  C          0.82748000       0.52728000       0.00917000
   181  C          0.47272000       0.82748000      -0.00917000
   182  C          0.52728000       0.17252000      -0.00917000
   183  C          0.67252000       0.97272000       0.50917000
   184  C          0.32748000       0.02728000       0.50917000
   185  C          0.97272000       0.32748000       0.49083000
   186  C          0.02728000       0.67252000       0.49083000
   187  H          0.20940000       0.43230000       0.02360000
   188  H          0.79060000       0.56770000       0.02360000
   189  H          0.43230000       0.79060000       0.97640000
   190  H          0.56770000       0.20940000       0.97640000
   191  H          0.70940000       0.93230000       0.52360000
   192  H          0.29060000       0.06770000       0.52360000
   193  H          0.93230000       0.29060000       0.47640000
   194  H          0.06770000       0.70940000       0.47640000
   195  C          0.19962000       0.54712000      -0.01547000
   196  C          0.80038000       0.45288000      -0.01547000
   197  C          0.54712000       0.80038000       0.01547000
   198  C          0.45288000       0.19962000       0.01547000
   199  C          0.69962000       0.04712000       0.48453000
   200  C          0.30038000       0.95288000       0.48453000
   201  C          0.04712000       0.30038000       0.51547000
   202  C          0.95288000       0.69962000       0.51547000
   203  H          0.25360000       0.55760000      -0.01460000
   204  H          0.74640000       0.44240000      -0.01460000
   205  H          0.55760000       0.74640000       0.01460000
   206  H          0.44240000       0.25360000       0.01460000
   207  H          0.75360000       0.05760000       0.48540000
   208  H          0.24640000       0.94240000       0.48540000
   209  H          0.05760000       0.24640000       0.51460000
   210  H          0.94240000       0.75360000       0.51460000
   211  C          0.14642000       0.60672000       0.95853000
   212  C          0.85358000       0.39328000       0.95853000
   213  C          0.60672000       0.85358000       0.04147000
   214  C          0.39328000       0.14642000       0.04147000
   215  C          0.64642000       0.10672000       0.45853000
   216  C          0.35358000       0.89328000       0.45853000
   217  C          0.10672000       0.35358000       0.54147000
   218  C          0.89328000       0.64642000       0.54147000
   219  H          0.16340000       0.65830000       0.93890000
   220  H          0.83660000       0.34170000       0.93890000
   221  H          0.65830000       0.83660000       0.06110000
   222  H          0.34170000       0.16340000       0.06110000
   223  H          0.66340000       0.15830000       0.43890000
   224  H          0.33660000       0.84170000       0.43890000
   225  H          0.15830000       0.33660000       0.56110000
   226  H          0.84170000       0.66340000       0.56110000
   227  C          0.06652000       0.58892000       0.96174000
   228  C          0.93348000       0.41108000       0.96174000
   229  C          0.58892000       0.93348000       0.03826000
   230  C          0.41108000       0.06652000       0.03826000
   231  C          0.56652000       0.08892000       0.46174000
   232  C          0.43348000       0.91108000       0.46174000
   233  C          0.08892000       0.43348000       0.53826000
   234  C          0.91108000       0.56652000       0.53826000
   235  H          0.02910000       0.62860000       0.94490000
   236  H          0.97090000       0.37140000       0.94490000
   237  H          0.62860000       0.97090000       0.05510000
   238  H          0.37140000       0.02910000       0.05510000
   239  H          0.52910000       0.12860000       0.44490000
   240  H          0.47090000       0.87140000       0.44490000
   241  H          0.12860000       0.47090000       0.55510000
   242  H          0.87140000       0.52910000       0.55510000
