data_FORTOZ
_symmetry_space_group_name_H-M    'P1'
_symmetry_Int_Tables_number       1
loop_
_symmetry_equiv_pos_site_id
_symmetry_equiv_pos_as_xyz
1 x,y,z
_cell_length_a                   7.22957
_cell_length_b                   7.31787
_cell_length_c                   9.29838
_cell_angle_alpha                78.8868
_cell_angle_beta                 68.7949
_cell_angle_gamma                66.7189
loop_
_atom_site_label
_atom_site_type_symbol
_atom_site_fract_x
_atom_site_fract_y
_atom_site_fract_z
     1  P         -0.00000000       0.50000000       0.00000000
     2  F          0.09822000       0.41242000       0.82286140
     3  F          0.90178000       0.58758000       0.17713860
     4  F          0.94832000       0.73489190       0.92051150
     5  F          0.05168000       0.26510810       0.07948850
     6  F          0.75202000       0.51462000       0.01599140
     7  F          0.24798000       0.48538000      -0.01599140
     8  N          0.56233000       0.33493000       0.72102000
     9  N          0.43767000       0.66507000       0.27898000
    10  C          0.54853000       0.28243000       0.59532000
    11  C          0.45147000       0.71757000       0.40468000
    12  H          0.42210000       0.27570000       0.59670000
    13  H          0.57790000       0.72430000       0.40330000
    14  C          0.72583000       0.23813000       0.46282000
    15  C          0.27417000       0.76187000       0.53718000
    16  C          0.91253000       0.24833000       0.46802000
    17  C          0.08747000       0.75167000       0.53198000
    18  H          0.03300000       0.21980000       0.38130000
    19  H          0.96700000       0.78020000       0.61870000
    20  C          0.91954000       0.30063000       0.60123000
    21  C          0.08046000       0.69937000       0.39877000
    22  H          0.04470000       0.30470000       0.60470000
    23  H          0.95530000       0.69530000       0.39530000
    24  C          0.73924000       0.34643000       0.72823000
    25  C          0.26076000       0.65357000       0.27177000
    26  H          0.74030000       0.38480000       0.81750000
    27  H          0.25970000       0.61520000       0.18250000
    28  N          0.72633000       0.18803000       0.32602000
    29  N          0.27367000       0.81197000       0.67398000
    30  H          0.84150000       0.19050000       0.24340000
    31  H          0.15850000       0.80950000       0.75660000
    32  C          0.56263000       0.16293000       0.29942000
    33  C          0.43737000       0.83707000       0.70058000
    34  O          0.39153000       0.18373000       0.39866190
    35  O          0.60847000       0.81627000       0.60133810
    36  C          0.61334000       0.10694000       0.13853000
    37  C          0.38666000       0.89306000       0.86147000
    38  H          0.69140000       0.96640000       0.13090000
    39  H          0.30860000       0.03360000       0.86910000
    40  H          0.69710000       0.17890000       0.06560000
    41  H          0.30290000       0.82110000       0.93440000
    42  H          0.48370000       0.13970000       0.11620000
    43  H          0.51630000       0.86030000       0.88380000
