data_FOSDUP
_symmetry_space_group_name_H-M    'P1'
_symmetry_Int_Tables_number       1
loop_
_symmetry_equiv_pos_site_id
_symmetry_equiv_pos_as_xyz
1 x,y,z
_cell_length_a                   9.64299
_cell_length_b                   16.603916
_cell_length_c                   8.02368
_cell_angle_alpha                90.0
_cell_angle_beta                 125.67101
_cell_angle_gamma                90.0
loop_
_atom_site_label
_atom_site_type_symbol
_atom_site_fract_x
_atom_site_fract_y
_atom_site_fract_z
     1  N          0.50000000       0.46073120       0.75000000
     2  N         -0.00000000       0.96073120       0.75000000
     3  N          0.50000000       0.53926880       0.25000000
     4  N          0.00000000       0.03926880       0.25000000
     5  H          0.49999900       0.40772700       0.75000000
     6  H         -0.00000100       0.90772700       0.75000000
     7  H          0.50000100       0.59227300       0.25000000
     8  H          0.00000100       0.09227300       0.25000000
     9  C          0.37262000       0.49904100       0.74593000
    10  C          0.62738000       0.49904100       0.75407000
    11  C          0.87262000      -0.00095900       0.74593000
    12  C          0.12738000      -0.00095900       0.75407000
    13  C          0.62738000       0.50095900       0.25407000
    14  C          0.37262000       0.50095900       0.24593000
    15  C          0.12738000       0.00095900       0.25407000
    16  C          0.87262000       0.00095900       0.24593000
    17  S          0.22112500       0.44912300       0.73977700
    18  S          0.77887500       0.44912300       0.76022300
    19  S          0.72112500       0.94912300       0.73977700
    20  S          0.27887500       0.94912300       0.76022300
    21  S          0.77887500       0.55087700       0.26022300
    22  S          0.22112500       0.55087700       0.23977700
    23  S          0.27887500       0.05087700       0.26022300
    24  S          0.72112500       0.05087700       0.23977700
    25  N          0.37976180       0.58117800       0.74902000
    26  N          0.62023820       0.58117800       0.75098000
    27  N          0.87976180       0.08117800       0.74902000
    28  N          0.12023820       0.08117800       0.75098000
    29  N          0.62023820       0.41882200       0.25098000
    30  N          0.37976180       0.41882200       0.24902000
    31  N          0.12023820       0.91882200       0.25098000
    32  N          0.87976180       0.91882200       0.24902000
    33  H          0.30143300       0.60761400       0.75057400
    34  H          0.69856700       0.60761400       0.74942600
    35  H          0.80143300       0.10761400       0.75057400
    36  H          0.19856700       0.10761400       0.74942600
    37  H          0.69856700       0.39238600       0.24942600
    38  H          0.30143300       0.39238600       0.25057400
    39  H          0.19856700       0.89238600       0.24942600
    40  H          0.80143300       0.89238600       0.25057400
    41  C          0.50000000       0.62530140       0.75000000
    42  C         -0.00000000       0.12530140       0.75000000
    43  C          0.50000000       0.37469860       0.25000000
    44  C          0.00000000       0.87469860       0.25000000
    45  S          0.50000000       0.72477300       0.75000000
    46  S         -0.00000000       0.22477300       0.75000000
    47  S          0.50000000       0.27522700       0.25000000
    48  S          0.00000000       0.77522700       0.25000000
    49  N          0.50000000       0.28917130       0.75000000
    50  N         -0.00000000       0.78917130       0.75000000
    51  N          0.50000000       0.71082870       0.25000000
    52  N          0.00000000       0.21082870       0.25000000
    53  C          0.38662000       0.24583110       0.75653000
    54  C          0.61338000       0.24583110       0.74347000
    55  C          0.88662000       0.74583110       0.75653000
    56  C          0.11338000       0.74583110       0.74347000
    57  C          0.61338000       0.75416890       0.24347000
    58  C          0.38662000       0.75416890       0.25653000
    59  C          0.11338000       0.25416890       0.24347000
    60  C          0.88662000       0.25416890       0.25653000
    61  H          0.30413400       0.27438500       0.76235300
    62  H          0.69586600       0.27438500       0.73764700
    63  H          0.80413400       0.77438500       0.76235300
    64  H          0.19586600       0.77438500       0.73764700
    65  H          0.69586600       0.72561500       0.23764700
    66  H          0.30413400       0.72561500       0.26235300
    67  H          0.19586600       0.22561500       0.23764700
    68  H          0.80413400       0.22561500       0.26235300
    69  N          0.37997190       0.16571800       0.75532000
    70  N          0.62002810       0.16571800       0.74468000
    71  N          0.87997190       0.66571800       0.75532000
    72  N          0.12002810       0.66571800       0.74468000
    73  N          0.62002810       0.83428200       0.24468000
    74  N          0.37997190       0.83428200       0.25532000
    75  N          0.12002810       0.33428200       0.24468000
    76  N          0.87997190       0.33428200       0.25532000
    77  C          0.50000000       0.12843140       0.75000000
    78  C         -0.00000000       0.62843140       0.75000000
    79  C          0.50000000       0.87156860       0.25000000
    80  C          0.00000000       0.37156860       0.25000000
    81  H          0.49999900       0.07121900       0.75000000
    82  H         -0.00000100       0.57121900       0.75000000
    83  H          0.50000100       0.92878100       0.25000000
    84  H          0.00000100       0.42878100       0.25000000
