data_FOSFIF
_symmetry_space_group_name_H-M    'P1'
_symmetry_Int_Tables_number       1
loop_
_symmetry_equiv_pos_site_id
_symmetry_equiv_pos_as_xyz
1 x,y,z
_cell_length_a                   4.76309
_cell_length_b                   23.8265
_cell_length_c                   15.5103
_cell_angle_alpha                90.0
_cell_angle_beta                 93.2192
_cell_angle_gamma                90.0
loop_
_atom_site_label
_atom_site_type_symbol
_atom_site_fract_x
_atom_site_fract_y
_atom_site_fract_z
     1  C          0.18126000       0.46017110       0.63465160
     2  C          0.31874000       0.96017110       0.86534840
     3  C          0.81874000       0.53982890       0.36534840
     4  C          0.68126000       0.03982890       0.13465160
     5  S          0.93542840       0.50895300       0.63860400
     6  S          0.56457160       0.00895300       0.86139600
     7  S          0.06457160       0.49104700       0.36139600
     8  S          0.43542840       0.99104700       0.13860400
     9  N          0.27855000       0.44117900       0.55862140
    10  N          0.22145000       0.94117900       0.94137860
    11  N          0.72145000       0.55882100       0.44137860
    12  N          0.77855000       0.05882100       0.05862140
    13  H          0.19991700       0.45509100       0.51056000
    14  H          0.30008300       0.95509100       0.98944000
    15  H          0.80008300       0.54490900       0.48944000
    16  H          0.69991700       0.04490900       0.01056000
    17  C          0.48706000       0.40244110       0.55089160
    18  C          0.01294000       0.90244110       0.94910840
    19  C          0.51294000       0.59755890       0.44910840
    20  C         -0.01294000       0.09755890       0.05089160
    21  S          0.60904160       0.38581300       0.45671400
    22  S          0.89095840       0.88581300       0.04328600
    23  S          0.39095840       0.61418700       0.54328600
    24  S          0.10904160       0.11418700       0.95671400
    25  N          0.58625000       0.37876900       0.62692130
    26  N          0.91375000       0.87876900       0.87307870
    27  N          0.41375000       0.62123100       0.37307870
    28  N          0.08625000       0.12123100       0.12692130
    29  H          0.71229300       0.35189600       0.62459400
    30  H          0.78770700       0.85189600       0.87540600
    31  H          0.28770700       0.64810400       0.37540600
    32  H          0.21229300       0.14810400       0.12459400
    33  C          0.50196000       0.39418110       0.70631160
    34  C         -0.00196000       0.89418110       0.79368840
    35  C          0.49804000       0.60581890       0.29368840
    36  C          0.00196000       0.10581890       0.20631160
    37  S          0.63446170       0.36483300       0.79605400
    38  S          0.86553830       0.86483300       0.70394600
    39  S          0.36553830       0.63516700       0.20394600
    40  S          0.13446170       0.13516700       0.29605400
    41  N          0.30335000       0.43531900       0.70696140
    42  N          0.19665000       0.93531900       0.79303860
    43  N          0.69665000       0.56468100       0.29303860
    44  N          0.80335000       0.06468100       0.20696140
    45  H          0.24968600       0.44670100       0.75744400
    46  H          0.25031400       0.94670100       0.74255600
    47  H          0.75031400       0.55329900       0.24255600
    48  H          0.74968600       0.05329900       0.25744400
    49  N          0.46896000       0.58605110       0.87788160
    50  N          0.03104000       0.08605110       0.62211840
    51  N          0.53104000       0.41394890       0.12211840
    52  N          0.96896000       0.91394890       0.37788160
    53  C          0.57127000       0.60356120       0.80391190
    54  C          0.92873000       0.10356120       0.69608810
    55  C          0.42873000       0.39643880       0.19608810
    56  C          0.07127000       0.89643880       0.30391190
    57  H          0.50081200       0.58658500       0.75164400
    58  H         -0.00081200       0.08658500       0.74835600
    59  H          0.49918800       0.41341500       0.24835600
    60  H          0.00081200       0.91341500       0.25164400
    61  C          0.89146000       0.66352120       0.72046180
    62  C          0.60854000       0.16352120       0.77953820
    63  C          0.10854000       0.33647880       0.27953820
    64  C          0.39146000       0.83647880       0.22046180
    65  H          0.82993700       0.64631300       0.66745800
    66  H          0.67006300       0.14631300       0.83254200
    67  H          0.17006300       0.35368700       0.33254200
    68  H          0.32993700       0.85368700       0.16745800
    69  C          0.08646000       0.70464120       0.72050180
    70  C          0.41354000       0.20464120       0.77949820
    71  C          0.91354000       0.29535880       0.27949820
    72  C          0.58646000       0.79535880       0.22050180
    73  H          0.15693100       0.71648300       0.66737400
    74  H          0.34306900       0.21648300       0.83262600
    75  H          0.84306900       0.28351700       0.33262600
    76  H          0.65693100       0.78351700       0.16737400
    77  C          0.39136000       0.77266110       0.80398170
    78  C          0.10864000       0.27266110       0.69601830
    79  C          0.60864000       0.22733890       0.19601830
    80  C          0.89136000       0.72733890       0.30398170
    81  H          0.46575800       0.78489300       0.75162400
    82  H          0.03424200       0.28489300       0.74837600
    83  H          0.53424200       0.21510700       0.24837600
    84  H          0.96575800       0.71510700       0.25162400
    85  N          0.48855000       0.79702900       0.87835140
    86  N          0.01145000       0.29702900       0.62164860
    87  N          0.51145000       0.20297100       0.12164860
    88  N         -0.01145000       0.70297100       0.37835140
    89  C          0.38336000       0.77987110       0.95242170
    90  C          0.11664000       0.27987110       0.54757830
    91  C          0.61664000       0.22012890       0.04757830
    92  C          0.88336000       0.72012890       0.45242170
    93  H          0.45137500       0.79714900       0.00469800
    94  H          0.04862500       0.29714900       0.49530200
    95  H          0.54862500       0.20285100      -0.00469800
    96  H          0.95137500       0.70285100       0.50469800
    97  C          0.06906000       0.71921120       0.03588170
    98  C          0.43094000       0.21921120       0.46411830
    99  C          0.93094000       0.28078880       0.96411830
   100  C          0.56906000       0.78078880       0.53588170
   101  H          0.13327900       0.73599800       0.08892700
   102  H          0.36672100       0.23599800       0.41107300
   103  H          0.86672100       0.26400200       0.91107300
   104  H          0.63327900       0.76400200       0.58892700
   105  C          0.87446000       0.67783120       0.03627180
   106  C          0.62554000       0.17783120       0.46372820
   107  C          0.12554000       0.32216880       0.96372820
   108  C          0.37446000       0.82216880       0.53627180
   109  H          0.80661900       0.66559100       0.08956600
   110  H          0.69338100       0.16559100       0.41043400
   111  H          0.19338100       0.33440900       0.91043400
   112  H          0.30661900       0.83440900       0.58956600
   113  C          0.56596000       0.60949120       0.95272000
   114  C          0.93404000       0.10949120       0.54728000
   115  C          0.43404000       0.39050880       0.04728000
   116  C          0.06596000       0.89050880       0.45272000
   117  H          0.49380800       0.59658300       0.00503300
   118  H          0.00619200       0.09658300       0.49496700
   119  H          0.50619200       0.40341700      -0.00503300
   120  H         -0.00619200       0.90341700       0.50503300
   121  C          0.77586000       0.64543110       0.79906170
   122  C          0.72414000       0.14543110       0.70093830
   123  C          0.22414000       0.35456890       0.20093830
   124  C          0.27586000       0.85456890       0.29906170
   125  C          0.18906000       0.73084110       0.79973170
   126  C          0.31094000       0.23084110       0.70026830
   127  C          0.81094000       0.26915890       0.20026830
   128  C          0.68906000       0.76915890       0.29973170
   129  C          0.18036000       0.73822110       0.95680170
   130  C          0.31964000       0.23822110       0.54319830
   131  C          0.81964000       0.26177890       0.04319830
   132  C          0.68036000       0.76177890       0.45680170
   133  C          0.76846000       0.65204110       0.95665170
   134  C          0.73154000       0.15204110       0.54334830
   135  C          0.23154000       0.34795890       0.04334830
   136  C          0.26846000       0.84795890       0.45665170
   137  C          0.87456000       0.67025110       0.87813170
   138  C          0.62544000       0.17025110       0.62186830
   139  C          0.12544000       0.32974890       0.12186830
   140  C          0.37456000       0.82974890       0.37813170
   141  C          0.08106000       0.71316110       0.87841170
   142  C          0.41894000       0.21316110       0.62158830
   143  C          0.91894000       0.28683890       0.12158830
   144  C          0.58106000       0.78683890       0.37841170
   145  O          0.21825000       0.48079900       0.86465140
   146  O          0.28175000       0.98079900       0.63534860
   147  O          0.78175000       0.51920100       0.13534860
   148  O          0.71825000       0.01920100       0.36465140
   149  H          0.28680000       0.51421000       0.86420000
   150  H          0.21320000       0.01421000       0.63580000
   151  H          0.71320000       0.48579000       0.13580000
   152  H          0.78680000       0.98579000       0.36420000
   153  C          0.94502000       0.48484170       0.88973000
   154  C          0.55498000       0.98484170       0.61027000
   155  C          0.05498000       0.51515830       0.11027000
   156  C          0.44502000       0.01515830       0.38973000
   157  H          0.92970500       0.51679800       0.92892500
   158  H          0.57029500       0.01679800       0.57107500
   159  H          0.07029500       0.48320200       0.07107500
   160  H          0.42970500       0.98320200       0.42892500
   161  H          0.89445900       0.45025900       0.91928600
   162  H          0.60554100       0.95025900       0.58071400
   163  H          0.10554100       0.54974100       0.08071400
   164  H          0.39445900       0.04974100       0.41928600
   165  H          0.81744500       0.49034900       0.83861300
   166  H          0.68255500       0.99034900       0.66138700
   167  H          0.18255500       0.50965100       0.16138700
   168  H          0.31744500       0.00965100       0.33861300
