data_FOSHEC
_symmetry_space_group_name_H-M    'P1'
_symmetry_Int_Tables_number       1
loop_
_symmetry_equiv_pos_site_id
_symmetry_equiv_pos_as_xyz
1 x,y,z
_cell_length_a                   7.3618318
_cell_length_b                   23.11415
_cell_length_c                   11.77183
_cell_angle_alpha                90.0
_cell_angle_beta                 107.9193
_cell_angle_gamma                90.0
loop_
_atom_site_label
_atom_site_type_symbol
_atom_site_fract_x
_atom_site_fract_y
_atom_site_fract_z
     1  C          0.23765000       0.46361140       0.44193000
     2  C          0.76235000       0.96361140       0.05807000
     3  C          0.76235000       0.53638860       0.55807000
     4  C          0.23765000       0.03638860       0.94193000
     5  C          0.14875000       0.51487150       0.39543000
     6  C          0.85125000       0.01487150       0.10457000
     7  C          0.85125000       0.48512850       0.60457000
     8  C          0.14875000       0.98512850       0.89543000
     9  C          0.15945000       0.56551150       0.46113000
    10  C          0.84055000       0.06551150       0.03887000
    11  C          0.84055000       0.43448850       0.53887000
    12  C          0.15945000       0.93448850       0.96113000
    13  C          0.26095000       0.56280160       0.58103000
    14  C          0.73905000       0.06280160       0.91897000
    15  C          0.73905000       0.43719840       0.41897000
    16  C          0.26095000       0.93719840       0.08103000
    17  C          0.34875000       0.51236160       0.63173000
    18  C          0.65125000       0.01236160       0.86827000
    19  C          0.65125000       0.48763840       0.36827000
    20  C          0.34875000       0.98763840       0.13173000
    21  C          0.33895000       0.46360150       0.56203000
    22  C          0.66105000       0.96360150       0.93797000
    23  C          0.66105000       0.53639850       0.43797000
    24  C          0.33895000       0.03639850       0.06203000
    25  F          0.04463000       0.51603900       0.27780180
    26  F          0.95537000       0.01603900       0.22219820
    27  F          0.95537000       0.48396100       0.72219820
    28  F          0.04463000       0.98396100       0.77780180
    29  F          0.27623000       0.60919900       0.65123180
    30  F          0.72377000       0.10919900       0.84876820
    31  F          0.72377000       0.39080100       0.34876820
    32  F          0.27623000       0.89080100       0.15123180
    33  F          0.44593000       0.51059100       0.74962190
    34  F          0.55407000       0.01059100       0.75037810
    35  F          0.55407000       0.48940900       0.25037810
    36  F          0.44593000       0.98940900       0.24962190
    37  F          0.43213000       0.41590900       0.61438190
    38  F          0.56787000       0.91590900       0.88561810
    39  F          0.56787000       0.58409100       0.38561810
    40  F          0.43213000       0.08409100       0.11438190
    41  I          0.21420300       0.38838200       0.33826200
    42  I          0.78579700       0.88838200       0.16173800
    43  I          0.78579700       0.61161800       0.66173800
    44  I          0.21420300       0.11161800       0.83826200
    45  I          0.02164300       0.64227200       0.38521200
    46  I         -0.02164300       0.14227200       0.11478800
    47  I         -0.02164300       0.35772800       0.61478800
    48  I          0.02164300       0.85772800       0.88521200
    49  C          0.77245000       0.12515150       0.54103000
    50  C          0.22755000       0.62515150       0.95897000
    51  C          0.22755000       0.87484850       0.45897000
    52  C          0.77245000       0.37484850       0.04103000
    53  H          0.73980000       0.11280000       0.61290000
    54  H          0.26020000       0.61280000       0.88710000
    55  H          0.26020000       0.88720000       0.38710000
    56  H          0.73980000       0.38720000       0.11290000
    57  H          0.89550000       0.14610000       0.56820000
    58  H          0.10450000       0.64610000       0.93180000
    59  H          0.10450000       0.85390000       0.43180000
    60  H          0.89550000       0.35390000       0.06820000
    61  C          0.66635000       0.18862160       0.36053000
    62  C          0.33365000       0.68862160       0.13947000
    63  C          0.33365000       0.81137840       0.63947000
    64  C          0.66635000       0.31137840       0.86053000
    65  H          0.55970000       0.21400000       0.31620000
    66  H          0.44030000       0.71400000       0.18380000
    67  H          0.44030000       0.78600000       0.68380000
    68  H          0.55970000       0.28600000       0.81620000
    69  H          0.66840000       0.15530000       0.30810000
    70  H          0.33160000       0.65530000       0.19190000
    71  H          0.33160000       0.84470000       0.69190000
    72  H          0.66840000       0.34470000       0.80810000
    73  C          0.85305000       0.22231150       0.38103000
    74  C          0.14695000       0.72231150       0.11897000
    75  C          0.14695000       0.77768850       0.61897000
    76  C          0.85305000       0.27768850       0.88103000
    77  H          0.86510000       0.23450000       0.30390000
    78  H          0.13490000       0.73450000       0.19610000
    79  H          0.13490000       0.76550000       0.69610000
    80  H          0.86510000       0.26550000       0.80390000
    81  H          0.96110000       0.19750000       0.42200000
    82  H          0.03890000       0.69750000       0.07800000
    83  H          0.03890000       0.80250000       0.57800000
    84  H          0.96110000       0.30250000       0.92200000
    85  H          0.85200000       0.25650000       0.43010000
    86  H          0.14800000       0.75650000       0.06990000
    87  H          0.14800000       0.74350000       0.56990000
    88  H          0.85200000       0.24350000       0.93010000
    89  C          0.62275000       0.21483150       0.55953000
    90  C          0.37725000       0.71483150       0.94047000
    91  C          0.37725000       0.78516850       0.44047000
    92  C          0.62275000       0.28516850       0.05953000
    93  H          0.58280000       0.19860000       0.62590000
    94  H          0.41720000       0.69860000       0.87410000
    95  H          0.41720000       0.80140000       0.37410000
    96  H          0.58280000       0.30140000       0.12590000
    97  H          0.75530000       0.22900000       0.59350000
    98  H          0.24470000       0.72900000       0.90650000
    99  H          0.24470000       0.77100000       0.40650000
   100  H          0.75530000       0.27100000       0.09350000
   101  C          0.49625000       0.26546160       0.50773000
   102  C          0.50375000       0.76546160      -0.00773000
   103  C          0.50375000       0.73453840       0.49227000
   104  C          0.49625000       0.23453840       0.00773000
   105  H          0.50620000       0.29440000       0.57020000
   106  H          0.49380000       0.79440000       0.92980000
   107  H          0.49380000       0.70560000       0.42980000
   108  H          0.50620000       0.20560000       0.07020000
   109  H          0.36360000       0.25230000       0.47600000
   110  H          0.63640000       0.75230000       0.02400000
   111  H          0.63640000       0.74770000       0.52400000
   112  H          0.36360000       0.24770000       0.97600000
   113  H          0.53640000       0.28270000       0.44330000
   114  H          0.46360000       0.78270000       0.05670000
   115  H          0.46360000       0.71730000       0.55670000
   116  H          0.53640000       0.21730000       0.94330000
   117  C          0.42595000       0.13674160       0.42543000
   118  C          0.57405000       0.63674160       0.07457000
   119  C          0.57405000       0.86325840       0.57457000
   120  C          0.42595000       0.36325840       0.92543000
   121  H          0.43020000       0.10770000       0.36450000
   122  H          0.56980000       0.60770000       0.13550000
   123  H          0.56980000       0.89230000       0.63550000
   124  H          0.43020000       0.39230000       0.86450000
   125  H          0.33080000       0.16640000       0.38520000
   126  H          0.66920000       0.66640000       0.11480000
   127  H          0.66920000       0.83360000       0.61480000
   128  H          0.33080000       0.33360000       0.88520000
   129  C          0.35546000       0.10680170       0.52004000
   130  C          0.64454000       0.60680170       0.97996000
   131  C          0.64454000       0.89319830       0.47996000
   132  C          0.35546000       0.39319830       0.02004000
   133  H          0.22950000       0.08970000       0.48180000
   134  H          0.77050000       0.58970000       0.01820000
   135  H          0.77050000       0.91030000       0.51820000
   136  H          0.22950000       0.41030000       0.98180000
   137  H          0.34610000       0.13520000       0.57970000
   138  H          0.65390000       0.63520000       0.92030000
   139  H          0.65390000       0.86480000       0.42030000
   140  H          0.34610000       0.36480000       0.07970000
   141  H          0.44560000       0.07630000       0.55890000
   142  H          0.55440000       0.57630000       0.94110000
   143  H          0.55440000       0.92370000       0.44110000
   144  H          0.44560000       0.42370000       0.05890000
   145  N          0.62144000       0.16583120       0.47052000
   146  N          0.37856000       0.66583120       0.02948000
   147  N          0.37856000       0.83416880       0.52948000
   148  N          0.62144000       0.33416880       0.97052000
   149  Br         0.80408600       0.05784200       0.45453500
   150  Br         0.19591400       0.55784200       0.04546500
   151  Br         0.19591400       0.94215800       0.54546500
   152  Br         0.80408600       0.44215800       0.95453500
   153  Br         0.18306500       0.26814200       0.19494300
   154  Br         0.81693500       0.76814200       0.30505700
   155  Br         0.81693500       0.73185800       0.80505700
   156  Br         0.18306500       0.23185800       0.69494300
