data_FOSHAY
_symmetry_space_group_name_H-M    'P1'
_symmetry_Int_Tables_number       1
loop_
_symmetry_equiv_pos_site_id
_symmetry_equiv_pos_as_xyz
1 x,y,z
_cell_length_a                   11.68625
_cell_length_b                   24.09179
_cell_length_c                   7.16033
_cell_angle_alpha                90.0
_cell_angle_beta                 106.6825
_cell_angle_gamma                90.0
loop_
_atom_site_label
_atom_site_type_symbol
_atom_site_fract_x
_atom_site_fract_y
_atom_site_fract_z
     1  C          0.45008000       0.97287000       0.67741100
     2  C          0.45008000       0.02713000       0.17741100
     3  C          0.95008000       0.47287000       0.67741100
     4  C          0.95008000       0.52713000       0.17741100
     5  C          0.57098000       0.97866000       0.69811200
     6  C          0.57098000       0.02134000       0.19811200
     7  C          0.07098000       0.47866000       0.69811200
     8  C          0.07098000       0.52134000       0.19811200
     9  C          0.62198000       0.02963000       0.70211300
    10  C          0.62198000       0.97037000       0.20211300
    11  C          0.12198000       0.52963000       0.70211300
    12  C          0.12198000       0.47037000       0.20211300
    13  C          0.55798000       0.07893000       0.68961100
    14  C          0.55798000       0.92107000       0.18961100
    15  C          0.05798000       0.57893000       0.68961100
    16  C          0.05798000       0.42107000       0.18961100
    17  C          0.43847000       0.07383000       0.67391100
    18  C          0.43847000       0.92617000       0.17391100
    19  C          0.93847000       0.57383000       0.67391100
    20  C          0.93847000       0.42617000       0.17391100
    21  C          0.38458000       0.02143000       0.66511400
    22  C          0.38458000       0.97857000       0.16511400
    23  C          0.88458000       0.52143000       0.66511400
    24  C          0.88458000       0.47857000       0.16511400
    25  F          0.63765000       0.93243820       0.70869000
    26  F          0.63765000       0.06756180       0.20869000
    27  F          0.13765000       0.43243820       0.70869000
    28  F          0.13765000       0.56756180       0.20869000
    29  F          0.74074000       0.03212000       0.71829000
    30  F          0.74074000       0.96788000       0.21829000
    31  F          0.24074000       0.53212000       0.71829000
    32  F          0.24074000       0.46788000       0.21829000
    33  F          0.36795000       0.11843160       0.65698000
    34  F          0.36795000       0.88156840       0.15698000
    35  F          0.86795000       0.61843160       0.65698000
    36  F          0.86795000       0.38156840       0.15698000
    37  F          0.26595000       0.01982000       0.64528000
    38  F          0.26595000       0.98018000       0.14528000
    39  F          0.76595000       0.51982000       0.64528000
    40  F          0.76595000       0.48018000       0.14528000
    41  I          0.36645500       0.89495800       0.65765600
    42  I          0.36645500       0.10504200       0.15765600
    43  I          0.86645500       0.39495800       0.65765600
    44  I          0.86645500       0.60504200       0.15765600
    45  I          0.63455500       0.15641200       0.67609700
    46  I          0.63455500       0.84358800       0.17609700
    47  I          0.13455500       0.65641200       0.67609700
    48  I          0.13455500       0.34358800       0.17609700
    49  C          0.55897000       0.38023000       0.85871200
    50  C          0.55897000       0.61977000       0.35871200
    51  C          0.05897000       0.88023000       0.85871200
    52  C          0.05897000       0.11977000       0.35871200
    53  H          0.58430000       0.36180000       0.75330000
    54  H          0.58430000       0.63820000       0.25330000
    55  H          0.08430000       0.86180000       0.75330000
    56  H          0.08430000       0.13820000       0.25330000
    57  H          0.63180000       0.39280000       0.95860000
    58  H          0.63180000       0.60720000       0.45860000
    59  H          0.13180000       0.89280000       0.95860000
    60  H          0.13180000       0.10720000       0.45860000
    61  C          0.45278000       0.36364000       0.11351200
    62  C          0.45278000       0.63636000       0.61351200
    63  C          0.95278000       0.86364000       0.11351200
    64  C          0.95278000       0.13636000       0.61351200
    65  H          0.38610000       0.38930000       0.05440000
    66  H          0.38610000       0.61070000       0.55440000
    67  H          0.88610000       0.88930000       0.05440000
    68  H          0.88610000       0.11070000       0.55440000
    69  H          0.42010000       0.33330000       0.17670000
    70  H          0.42010000       0.66670000       0.67670000
    71  H          0.92010000       0.83330000       0.17670000
    72  H          0.92010000       0.16670000       0.67670000
    73  C          0.54478000       0.39473000       0.26991100
    74  C          0.54478000       0.60527000       0.76991100
    75  C          0.04478000       0.89473000       0.26991100
    76  C          0.04478000       0.10527000       0.76991100
    77  H          0.50750000       0.40890000       0.36670000
    78  H          0.50750000       0.59110000       0.86670000
    79  H          0.00750000       0.90890000       0.36670000
    80  H          0.00750000       0.09110000       0.86670000
    81  H          0.57600000       0.42570000       0.21100000
    82  H          0.57600000       0.57430000       0.71100000
    83  H          0.07600000       0.92570000       0.21100000
    84  H          0.07600000       0.07430000       0.71100000
    85  H          0.61020000       0.36950000       0.33370000
    86  H          0.61020000       0.63050000       0.83370000
    87  H          0.11020000       0.86950000       0.33370000
    88  H          0.11020000       0.13050000       0.83370000
    89  C          0.58837000       0.29363000       0.02731200
    90  C          0.58837000       0.70637000       0.52731200
    91  C          0.08837000       0.79363000       0.02731200
    92  C          0.08837000       0.20637000       0.52731200
    93  H          0.65410000       0.30990000       0.13230000
    94  H          0.65410000       0.69010000       0.63230000
    95  H          0.15410000       0.80990000       0.13230000
    96  H          0.15410000       0.19010000       0.63230000
    97  H          0.62200000       0.28220000       0.92120000
    98  H          0.62200000       0.71780000       0.42120000
    99  H          0.12200000       0.78220000       0.92120000
   100  H          0.12200000       0.21780000       0.42120000
   101  C          0.54458000       0.24183000       0.10721300
   102  C          0.54458000       0.75817000       0.60721300
   103  C          0.04458000       0.74183000       0.10721300
   104  C          0.04458000       0.25817000       0.60721300
   105  H          0.61100000       0.21570000       0.15350000
   106  H          0.61100000       0.78430000       0.65350000
   107  H          0.11100000       0.71570000       0.15350000
   108  H          0.11100000       0.28430000       0.65350000
   109  H          0.48100000       0.22430000       0.00390000
   110  H          0.48100000       0.77570000       0.50390000
   111  H          0.98100000       0.72430000       0.00390000
   112  H          0.98100000       0.27570000       0.50390000
   113  H          0.51320000       0.25210000       0.21560000
   114  H          0.51320000       0.74790000       0.71560000
   115  H          0.01320000       0.75210000       0.21560000
   116  H          0.01320000       0.24790000       0.71560000
   117  C          0.38507000       0.31514000       0.80011200
   118  C          0.38507000       0.68486000       0.30011200
   119  C          0.88507000       0.81514000       0.80011200
   120  C          0.88507000       0.18486000       0.30011200
   121  H          0.32900000       0.34630000       0.75310000
   122  H          0.32900000       0.65370000       0.25310000
   123  H          0.82900000       0.84630000       0.75310000
   124  H          0.82900000       0.15370000       0.25310000
   125  H          0.34560000       0.28900000       0.86910000
   126  H          0.34560000       0.71100000       0.36910000
   127  H          0.84560000       0.78900000       0.86910000
   128  H          0.84560000       0.21100000       0.36910000
   129  C          0.40157000       0.28443000       0.61751000
   130  C          0.40157000       0.71557000       0.11751000
   131  C          0.90157000       0.78443000       0.61751000
   132  C          0.90157000       0.21557000       0.11751000
   133  H          0.32350000       0.27180000       0.53520000
   134  H          0.32350000       0.72820000       0.03520000
   135  H          0.82350000       0.77180000       0.53520000
   136  H          0.82350000       0.22820000       0.03520000
   137  H          0.45390000       0.25220000       0.65970000
   138  H          0.45390000       0.74780000       0.15970000
   139  H          0.95390000       0.75220000       0.65970000
   140  H          0.95390000       0.24780000       0.15970000
   141  H          0.43720000       0.30970000       0.54320000
   142  H          0.43720000       0.69030000       0.04320000
   143  H          0.93720000       0.80970000       0.54320000
   144  H          0.93720000       0.19030000       0.04320000
   145  N          0.49555000       0.33833000       0.94939000
   146  N          0.49555000       0.66167000       0.44939000
   147  N         -0.00445000       0.83833000       0.94939000
   148  N         -0.00445000       0.16167000       0.44939000
   149  Br         0.46355100       0.44375400       0.75297150
   150  Br         0.46355100       0.55624600       0.25297150
   151  Br         0.96355100       0.94375400       0.75297150
   152  Br         0.96355100       0.05624600       0.25297150
   153  Br         0.73192800       0.27798300       0.61239120
   154  Br         0.73192800       0.72201700       0.11239120
   155  Br         0.23192800       0.77798300       0.61239120
   156  Br         0.23192800       0.22201700       0.11239120
