data_FOTDUP
_symmetry_space_group_name_H-M    'P1'
_symmetry_Int_Tables_number       1
loop_
_symmetry_equiv_pos_site_id
_symmetry_equiv_pos_as_xyz
1 x,y,z
_cell_length_a                   13.8912
_cell_length_b                   9.991215
_cell_length_c                   9.485714
_cell_angle_alpha                90.0
_cell_angle_beta                 107.7758
_cell_angle_gamma                90.0
loop_
_atom_site_label
_atom_site_type_symbol
_atom_site_fract_x
_atom_site_fract_y
_atom_site_fract_z
     1  H          0.20150000       0.78720000       0.45870000
     2  H          0.79850000       0.28720000       0.04130000
     3  H          0.79850000       0.21280000       0.54130000
     4  H          0.20150000       0.71280000       0.95870000
     5  H          0.22450000       0.21070000       0.26370000
     6  H          0.77550000       0.71070000       0.23630000
     7  H          0.77550000       0.78930000       0.73630000
     8  H          0.22450000       0.28930000       0.76370000
     9  H          0.15260000       0.18980000       0.45780000
    10  H          0.84740000       0.68980000       0.04220000
    11  H          0.84740000       0.81020000       0.54220000
    12  H          0.15260000       0.31020000       0.95780000
    13  H          0.26860000       0.80910000       0.28490000
    14  H          0.73140000       0.30910000       0.21510000
    15  H          0.73140000       0.19090000       0.71510000
    16  H          0.26860000       0.69090000       0.78490000
    17  H          0.07590000       0.84688000       0.70660000
    18  H          0.92410000       0.34688000       0.79340000
    19  H          0.92410000       0.15312000       0.29340000
    20  H          0.07590000       0.65312000       0.20660000
    21  H          0.06510000       0.80886000       0.54814000
    22  H          0.93490000       0.30886000       0.95186000
    23  H          0.93490000       0.19114000       0.45186000
    24  H          0.06510000       0.69114000       0.04814000
    25  I          0.31173400       0.02218500       0.06145500
    26  I          0.68826600       0.52218500       0.43854500
    27  I          0.68826600       0.97781500       0.93854500
    28  I          0.31173400       0.47781500       0.56145500
    29  C          0.12365000       0.97283000       0.59768000
    30  C          0.87635000       0.47283000       0.90232000
    31  C          0.87635000       0.02717000       0.40232000
    32  C          0.12365000       0.52717000       0.09768000
    33  C          0.25275000       0.00737000       0.24148000
    34  C          0.74725000       0.50737000       0.25852000
    35  C          0.74725000      -0.00737000       0.75852000
    36  C          0.25275000       0.49263000       0.74148000
    37  O          0.12524000       0.07365000       0.67745000
    38  O          0.87476000       0.57365000       0.82255000
    39  O          0.87476000       0.92635000       0.32255000
    40  O          0.12524000       0.42635000       0.17745000
    41  C          0.20345000       0.86983000       0.41648000
    42  C          0.79655000       0.36983000       0.08352000
    43  C          0.79655000       0.13017000       0.58352000
    44  C          0.20345000       0.63017000       0.91648000
    45  N          0.08185000       0.85893000       0.61757000
    46  N          0.91815000       0.35893000       0.88243000
    47  N          0.91815000       0.14107000       0.38243000
    48  N          0.08185000       0.64107000       0.11757000
    49  C          0.21976000       0.12208000       0.29808000
    50  C          0.78024000       0.62208000       0.20192000
    51  C          0.78024000       0.87792000       0.70192000
    52  C          0.21976000       0.37792000       0.79808000
    53  C          0.17875000       0.11127000       0.41398000
    54  C          0.82125000       0.61127000       0.08602000
    55  C          0.82125000       0.88873000       0.58602000
    56  C          0.17875000       0.38873000       0.91398000
    57  C          0.17155000      -0.01336000       0.47356000
    58  C          0.82845000       0.48664000       0.02644000
    59  C          0.82845000       0.01336000       0.52644000
    60  C          0.17155000       0.51336000       0.97356000
    61  C          0.24636000       0.88092000       0.30318000
    62  C          0.75364000       0.38092000       0.19682000
    63  C          0.75364000       0.11908000       0.69682000
    64  C          0.24636000       0.61908000       0.80318000
    65  H          0.47260000       0.80410000       0.60090000
    66  H          0.52740000       0.30410000       0.89910000
    67  H          0.52740000       0.19590000       0.39910000
    68  H          0.47260000       0.69590000       0.10090000
    69  H          0.44860000       0.19890000       0.58510000
    70  H          0.55140000       0.69890000       0.91490000
    71  H          0.55140000       0.80110000       0.41490000
    72  H          0.44860000       0.30110000       0.08510000
    73  C          0.45536000       0.00037000       0.60803000
    74  C          0.54464000       0.50037000       0.89197000
    75  C          0.54464000      -0.00037000       0.39197000
    76  C          0.45536000       0.49963000       0.10803000
    77  O          0.39265000       0.10826000       0.78023000
    78  O          0.60735000       0.60826000       0.71977000
    79  O          0.60735000       0.89174000       0.21977000
    80  O          0.39265000       0.39174000       0.28023000
    81  O          0.38985000       0.89174000       0.77674000
    82  O          0.61015000       0.39174000       0.72326000
    83  O          0.61015000       0.10826000       0.22326000
    84  O          0.38985000       0.60826000       0.27674000
    85  N          0.40905000      -0.00156000       0.72733000
    86  N          0.59095000       0.49844000       0.77267000
    87  N          0.59095000       0.00156000       0.27267000
    88  N          0.40905000       0.50156000       0.22733000
    89  C          0.48186000       0.87782000       0.55952000
    90  C          0.51814000       0.37782000       0.94048000
    91  C          0.51814000       0.12218000       0.44048000
    92  C          0.48186000       0.62218000       0.05952000
    93  C          0.47316000       0.12208000       0.55152000
    94  C          0.52684000       0.62208000       0.94848000
    95  C          0.52684000       0.87792000       0.44848000
    96  C          0.47316000       0.37792000       0.05152000
    97  H          0.52860000       0.19590000       0.39890000
    98  H          0.47140000       0.69590000       0.10110000
    99  H          0.47140000       0.80410000       0.60110000
   100  H          0.52860000       0.30410000       0.89890000
   101  H          0.55260000       0.80110000       0.41310000
   102  H          0.44740000       0.30110000       0.08690000
   103  H          0.44740000       0.19890000       0.58690000
   104  H          0.55260000       0.69890000       0.91310000
   105  H          0.06160000       0.08910000       0.79770000
   106  H          0.93840000       0.58910000       0.70230000
   107  H          0.93840000       0.91090000       0.20230000
   108  H          0.06160000       0.41090000       0.29770000
   109  O          0.03354000       0.09505000       0.86706000
   110  O          0.96646000       0.59505000       0.63294000
   111  O          0.96646000       0.90495000       0.13294000
   112  O          0.03354000       0.40495000       0.36706000
   113  O          0.04554000       0.87325000       0.90846000
   114  O          0.95446000       0.37325000       0.59154000
   115  O          0.95446000       0.12675000       0.09154000
   116  O          0.04554000       0.62675000       0.40846000
   117  C          0.02315000       0.98553000       0.93687000
   118  C          0.97685000       0.48553000       0.56313000
   119  C          0.97685000       0.01447000       0.06313000
   120  C          0.02315000       0.51447000       0.43687000
   121  H          0.93840000       0.91090000       0.20370000
   122  H          0.06160000       0.41090000       0.29630000
   123  H          0.06160000       0.08910000       0.79630000
   124  H          0.93840000       0.58910000       0.70370000
