data_FOTFEB
_symmetry_space_group_name_H-M    'P1'
_symmetry_Int_Tables_number       1
loop_
_symmetry_equiv_pos_site_id
_symmetry_equiv_pos_as_xyz
1 x,y,z
_cell_length_a                   9.2733
_cell_length_b                   9.7163
_cell_length_c                   7.4472
_cell_angle_alpha                90.0
_cell_angle_beta                 92.1097
_cell_angle_gamma                90.0
loop_
_atom_site_label
_atom_site_type_symbol
_atom_site_fract_x
_atom_site_fract_y
_atom_site_fract_z
     1  O          0.16072000       0.11113000       0.31333000
     2  O          0.83928000       0.11113000       0.68667000
     3  O          0.66072000       0.61113000       0.31333000
     4  O          0.33928000       0.61113000       0.68667000
     5  O          0.83928000       0.88887000       0.68667000
     6  O          0.16072000       0.88887000       0.31333000
     7  O          0.33928000       0.38887000       0.68667000
     8  O          0.66072000       0.38887000       0.31333000
     9  N          0.21284000      -0.00000000       0.34104000
    10  N          0.78716000      -0.00000000       0.65896000
    11  N          0.71284000       0.50000000       0.34104000
    12  N          0.28716000       0.50000000       0.65896000
    13  C          0.36705000      -0.00000000       0.42345000
    14  C          0.63295000      -0.00000000       0.57655000
    15  C          0.86705000       0.50000000       0.42345000
    16  C          0.13295000       0.50000000       0.57655000
    17  C          0.43173000       0.12483000       0.46004000
    18  C          0.56827000       0.12483000       0.53996000
    19  C          0.93173000       0.62483000       0.46004000
    20  C          0.06827000       0.62483000       0.53996000
    21  C          0.56827000       0.87517000       0.53996000
    22  C          0.43173000       0.87517000       0.46004000
    23  C          0.06827000       0.37517000       0.53996000
    24  C          0.93173000       0.37517000       0.46004000
    25  H          0.38470000       0.20700000       0.43160000
    26  H          0.61530000       0.20700000       0.56840000
    27  H          0.88470000       0.70700000       0.43160000
    28  H          0.11530000       0.70700000       0.56840000
    29  H          0.61530000       0.79300000       0.56840000
    30  H          0.38470000       0.79300000       0.43160000
    31  H          0.11530000       0.29300000       0.56840000
    32  H          0.88470000       0.29300000       0.43160000
    33  Br         0.16840400      -0.00000000       0.83306500
    34  Br         0.83159600       0.00000000       0.16693500
    35  Br         0.66840400       0.50000000       0.83306500
    36  Br         0.33159600       0.50000000       0.16693500
    37  C          0.42973000       0.12353000       0.96384000
    38  C          0.57027000       0.12353000       0.03616000
    39  C          0.92973000       0.62353000       0.96384000
    40  C          0.07027000       0.62353000       0.03616000
    41  C          0.57027000       0.87647000       0.03616000
    42  C          0.42973000       0.87647000       0.96384000
    43  C          0.07027000       0.37647000       0.03616000
    44  C          0.92973000       0.37647000       0.96384000
    45  H          0.38230000       0.20600000       0.93890000
    46  H          0.61770000       0.20600000       0.06110000
    47  H          0.88230000       0.70600000       0.93890000
    48  H          0.11770000       0.70600000       0.06110000
    49  H          0.61770000       0.79400000       0.06110000
    50  H          0.38230000       0.79400000       0.93890000
    51  H          0.11770000       0.29400000       0.06110000
    52  H          0.88230000       0.29400000       0.93890000
    53  C          0.36165000      -0.00000000       0.92975000
    54  C          0.63835000       0.00000000       0.07025000
    55  C          0.86165000       0.50000000       0.92975000
    56  C          0.13835000       0.50000000       0.07025000
