data_FOTYIX
_symmetry_space_group_name_H-M    'P1'
_symmetry_Int_Tables_number       1
loop_
_symmetry_equiv_pos_site_id
_symmetry_equiv_pos_as_xyz
1 x,y,z
_cell_length_a                   9.8382
_cell_length_b                   10.0852
_cell_length_c                   14.0163
_cell_angle_alpha                89.773
_cell_angle_beta                 74.903
_cell_angle_gamma                62.7642
loop_
_atom_site_label
_atom_site_type_symbol
_atom_site_fract_x
_atom_site_fract_y
_atom_site_fract_z
     1  O          0.78130190       0.31011170       0.36902100
     2  O          0.21869810       0.68988830       0.63097900
     3  H          0.81290000       0.34860000       0.40360000
     4  H          0.18710000       0.65140000       0.59640000
     5  O          0.85147190       0.44073170       0.25697100
     6  O          0.14852810       0.55926830       0.74302900
     7  O          0.20562000       0.12752000       0.25137110
     8  O          0.79438000       0.87248000       0.74862890
     9  H          0.19150000       0.08890000       0.30210000
    10  H          0.80850000       0.91110000       0.69790000
    11  O          0.09138170       0.00628160       0.20186100
    12  O          0.90861830      -0.00628160       0.79813900
    13  C          0.85832000       0.22452000       0.10768140
    14  C          0.14168000       0.77548000       0.89231860
    15  C          0.80782000       0.16032000       0.04568170
    16  C          0.19218000       0.83968000       0.95431830
    17  H          0.86550000       0.12950000       0.97860000
    18  H          0.13450000       0.87050000       0.02140000
    19  C          0.67443000       0.14183000       0.08159190
    20  C          0.32557000       0.85817000       0.91840810
    21  H          0.64250000       0.09970000       0.03850000
    22  H          0.35750000       0.90030000       0.96150000
    23  C          0.58803000       0.18483000       0.18022000
    24  C          0.41197000       0.81517000       0.81978000
    25  H          0.49860000       0.17090000       0.20450000
    26  H          0.50140000       0.82910000       0.79550000
    27  C          0.63542000       0.24892000       0.24313160
    28  C          0.36458000       0.75108000       0.75686840
    29  H          0.57770000       0.27750000       0.31030000
    30  H          0.42230000       0.72250000       0.68970000
    31  C          0.76692000       0.27122000       0.20803130
    32  C          0.23308000       0.72878000       0.79196870
    33  C          0.80482000       0.34972000       0.27920130
    34  C          0.19518000       0.65028000       0.72079870
    35  C          0.00702000       0.23672000       0.06315130
    36  C          0.99298000       0.76328000       0.93684870
    37  C          0.01993000       0.30483000       0.97690840
    38  C          0.98007000       0.69517000       0.02309160
    39  H          0.93580000       0.34160000       0.94870000
    40  H          0.06420000       0.65840000       0.05130000
    41  C          0.15464000       0.31923000       0.93224820
    42  C          0.84536000       0.68077000       0.06775180
    43  H          0.16060000       0.36430000       0.87440000
    44  H          0.83940000       0.63570000       0.12560000
    45  C          0.27864000       0.26734000       0.97275810
    46  C          0.72136000       0.73266000       0.02724190
    47  H          0.36880000       0.27780000       0.94300000
    48  H          0.63120000       0.72220000       0.05700000
    49  C          0.26973000       0.19963000       0.05760160
    50  C          0.73027000       0.80037000       0.94239840
    51  H          0.35410000       0.16510000       0.08540000
    52  H          0.64590000       0.83490000       0.91460000
    53  C          0.13642000       0.18192000       0.10261130
    54  C          0.86358000       0.81808000       0.89738870
    55  C          0.14092000       0.09652000       0.18959130
    56  C          0.85908000       0.90348000       0.81040870
    57  O          0.14222000       0.02959180       0.41578110
    58  O          0.85778000       0.97040820       0.58421890
    59  N          0.11195190       0.05334180       0.58106120
    60  N          0.88804810       0.94665820       0.41893880
    61  H          0.04710000       0.01620000       0.58980000
    62  H          0.95290000      -0.01620000       0.41020000
    63  C          0.14563000       0.08983000       0.66141150
    64  C          0.85437000       0.91017000       0.33858850
    65  H          0.10020000       0.07280000       0.72410000
    66  H          0.89980000       0.92720000       0.27590000
    67  C          0.24403000       0.15033000       0.65179160
    68  C          0.75597000       0.84967000       0.34820840
    69  H          0.26690000       0.17450000       0.70760000
    70  H          0.73310000       0.82550000       0.29240000
    71  C          0.31262000       0.17702000       0.55759150
    72  C          0.68738000       0.82298000       0.44240850
    73  C          0.27702000       0.13862000       0.47826140
    74  C          0.72298000       0.86138000       0.52173860
    75  H          0.32090000       0.15630000       0.41550000
    76  H          0.67910000       0.84370000       0.58450000
    77  C          0.17542000       0.07252000       0.48753140
    78  C          0.82458000       0.92748000       0.51246860
    79  C          0.42143000       0.24603000       0.54707180
    80  C          0.57857000       0.75397000       0.45292820
    81  H          0.35920000       0.35150000       0.57160000
    82  H          0.64080000       0.64850000       0.42840000
    83  H          0.47910000       0.23290000       0.47810000
    84  H          0.52090000       0.76710000       0.52190000
    85  H          0.49550000       0.19780000       0.58480000
    86  H          0.50450000       0.80220000       0.41520000
    87  O          0.88444180       0.42061170       0.48227100
    88  O          0.11555820       0.57938830       0.51772900
    89  N          0.89778180       0.48817170       0.63171110
    90  N          0.10221820       0.51182830       0.36828890
    91  H          0.96280000       0.52020000       0.60140000
    92  H          0.03720000       0.47980000       0.39860000
    93  C          0.85743000       0.50103000       0.73209150
    94  C          0.14257000       0.49897000       0.26790850
    95  H          0.89980000       0.54370000       0.76660000
    96  H          0.10020000       0.45630000       0.23340000
    97  C          0.75603000       0.45253000       0.78273160
    98  C          0.24397000       0.54747000       0.21726840
    99  H          0.72830000       0.46190000       0.85200000
   100  H          0.27170000       0.53810000       0.14800000
   101  C          0.69282000       0.38782000       0.73083160
   102  C          0.30718000       0.61218000       0.26916840
   103  C          0.73512000       0.37612000       0.62905150
   104  C          0.26488000       0.62388000       0.37094850
   105  H          0.69330000       0.33340000       0.59400000
   106  H          0.30670000       0.66660000       0.40600000
   107  C          0.84112000       0.42737190       0.57618130
   108  C          0.15888000       0.57262810       0.42381870
   109  C          0.57973000       0.33353000       0.78802000
   110  C          0.42027000       0.66647000       0.21198000
   111  H          0.62640000       0.26890000       0.83370000
   112  H          0.37360000       0.73110000       0.16630000
   113  H          0.55990000       0.27860000       0.74220000
   114  H          0.44010000       0.72140000       0.25780000
   115  H          0.48080000       0.41820000       0.82440000
   116  H          0.51920000       0.58180000       0.17560000
