data_FOVDUT
_symmetry_space_group_name_H-M    'P1'
_symmetry_Int_Tables_number       1
loop_
_symmetry_equiv_pos_site_id
_symmetry_equiv_pos_as_xyz
1 x,y,z
_cell_length_a                   8.377015
_cell_length_b                   12.1762
_cell_length_c                   14.1553
_cell_angle_alpha                88.9504
_cell_angle_beta                 88.9964
_cell_angle_gamma                84.5325
loop_
_atom_site_label
_atom_site_type_symbol
_atom_site_fract_x
_atom_site_fract_y
_atom_site_fract_z
     1  S          0.63390600       0.91106500       0.32222400
     2  S          0.36609400       0.08893500       0.67777600
     3  F          0.54262170       0.57252110       0.06858900
     4  F          0.45737830       0.42747890       0.93141100
     5  F          0.50527150       0.71131100       0.16008900
     6  F          0.49472850       0.28868900       0.83991100
     7  F          0.74191160       0.66171110       0.10638100
     8  F          0.25808840       0.33828890       0.89361900
     9  O          0.65599180       0.87278880       0.41848100
    10  O          0.34400820       0.12721120       0.58151900
    11  O          0.73586170       0.86246880       0.24897100
    12  O          0.26413830       0.13753120       0.75102900
    13  N          0.45182000       0.89322840       0.29504140
    14  N          0.54818000       0.10677160       0.70495860
    15  H          0.42130000       0.91538200       0.23411200
    16  H          0.57870000       0.08461800       0.76588800
    17  N          0.62552000       0.44172150       0.21347120
    18  N          0.37448000       0.55827850       0.78652880
    19  N          0.67152000       0.39656150       0.29860120
    20  N          0.32848000       0.60343850       0.70139880
    21  C          0.65162000       0.05488170       0.31864150
    22  C          0.34838000       0.94511830       0.68135850
    23  C          0.61492000       0.11734180       0.39842150
    24  C          0.38508000       0.88265820       0.60157850
    25  H          0.58438600       0.08283900       0.45581500
    26  H          0.41561400       0.91716100       0.54418500
    27  C          0.62312000       0.23097180       0.39380150
    28  C          0.37688000       0.76902820       0.60619850
    29  H          0.59836100       0.27477400       0.44791500
    30  H          0.40163900       0.72522600       0.55208500
    31  C          0.66772000       0.27922170       0.30946150
    32  C          0.33228000       0.72077830       0.69053850
    33  C          0.70432000       0.21628180       0.22929150
    34  C          0.29568000       0.78371820       0.77070850
    35  H          0.73517300       0.25067500       0.17191700
    36  H          0.26482700       0.74932500       0.82808300
    37  C          0.69552000       0.10405180       0.23378150
    38  C          0.30448000       0.89594820       0.76621850
    39  H          0.71916300       0.06048400       0.17941500
    40  H          0.28083700       0.93951600       0.82058500
    41  C          0.71412000       0.47432180       0.36090150
    42  C          0.28588000       0.52567820       0.63909850
    43  C          0.77512000       0.44673180       0.45591150
    44  C          0.22488000       0.55326820       0.54408850
    45  C          0.70183000       0.49816180       0.53412150
    46  C          0.29817000       0.50183820       0.46587850
    47  H          0.61760600       0.55528300       0.52559000
    48  H          0.38239400       0.44471700       0.47441000
    49  C          0.75023000       0.46704190       0.62448150
    50  C          0.24977000       0.53295810       0.37551850
    51  H          0.69722400       0.50239500       0.67717300
    52  H          0.30277600       0.49760500       0.32282700
    53  C          0.87483000       0.38512190       0.63977160
    54  C          0.12517000       0.61487810       0.36022840
    55  C          0.95343000       0.33744180       0.56089150
    56  C          0.04657000       0.66255820       0.43910850
    57  H          0.04237000       0.28388500       0.56937300
    58  H          0.95763000       0.71611500       0.43062700
    59  C          0.90382000       0.36699170       0.47015150
    60  C          0.09618000       0.63300830       0.52984850
    61  H          0.95778600       0.33265400       0.41731400
    62  H          0.04221400       0.66734600       0.58268600
    63  C          0.92023000       0.34792000       0.73866160
    64  C          0.07977000       0.65208000       0.26133840
    65  H          0.95316900       0.41044300       0.77359600
    66  H          0.04683100       0.58955700       0.22640400
    67  H          0.00916800       0.28953200       0.73587300
    68  H         -0.00916800       0.71046800       0.26412700
    69  H          0.82774600       0.31934300       0.77080700
    70  H          0.17225400       0.68065700       0.22919300
    71  C          0.63842000       0.54854180       0.22394150
    72  C          0.36158000       0.45145820       0.77605850
    73  C          0.69122000       0.57360180       0.31372150
    74  C          0.30878000       0.42639820       0.68627850
    75  H          0.70773600       0.64431300       0.33687500
    76  H          0.29226400       0.35568700       0.66312500
    77  C          0.60573000       0.62298190       0.14032160
    78  C          0.39427000       0.37701810       0.85967840
    79  H          0.38730000       0.91780000       0.34551400
    80  H          0.61270000       0.08220000       0.65448600
    81  O          0.38744160       0.98551880       0.10858100
    82  O          0.61255840       0.01448120       0.89141900
    83  N          0.15326190       0.09654140       0.11551120
    84  N          0.84673810       0.90345860       0.88448880
    85  N          0.31142000       0.08887170       0.97910860
    86  N          0.68858000       0.91112830       0.02089140
    87  C          0.04822000       0.18660180       0.07698150
    88  C          0.95178000       0.81339820       0.92301850
    89  C          0.92688000       0.16350190       0.01715150
    90  C          0.07312000       0.83649810       0.98284850
    91  H          0.91421400       0.08930300       0.00157200
    92  H          0.08578600       0.91069700      -0.00157200
    93  C          0.82377000       0.24913190       0.97995850
    94  C          0.17623000       0.75086810       0.02004150
    95  H          0.74113400       0.23401900       0.93835800
    96  H          0.25886600       0.76598100       0.06164200
    97  C          0.84287000       0.35652190       0.00423150
    98  C          0.15713000       0.64347810      -0.00423150
    99  H          0.77211300       0.41535100       0.97974400
   100  H          0.22788700       0.58464900       0.02025600
   101  C          0.96357000       0.37892190       0.06352150
   102  C          0.03643000       0.62107810       0.93647850
   103  H          0.97554800       0.45335600       0.07865300
   104  H          0.02445200       0.54664400       0.92134700
   105  C          0.06962000       0.29445190       0.10214150
   106  C          0.93038000       0.70554810       0.89785850
   107  C          0.19493000       0.32039190       0.16647160
   108  C          0.80507000       0.67960810       0.83352840
   109  H          0.24190900       0.38722000       0.15393800
   110  H          0.75809100       0.61278000       0.84606200
   111  C          0.25073000       0.26021180       0.24125160
   112  C          0.74927000       0.73978820       0.75874840
   113  H          0.33479600       0.28797900       0.27503500
   114  H          0.66520400       0.71202100       0.72496500
   115  C          0.19542000       0.15607180       0.27625150
   116  C          0.80458000       0.84392820       0.72374850
   117  C          0.19402000       0.13315190       0.37319150
   118  C          0.80598000       0.86684810       0.62680850
   119  H          0.23529900       0.18285500       0.41534800
   120  H          0.76470100       0.81714500       0.58465200
   121  C          0.13282000       0.03846190       0.40863160
   122  C          0.86718000       0.96153810       0.59136840
   123  H          0.13227300       0.02388900       0.47479700
   124  H          0.86772700       0.97611100       0.52520300
   125  C          0.07232000       0.96487810       0.34786150
   126  C          0.92768000       0.03512190       0.65213850
   127  H          0.02726900       0.90142300       0.37254600
   128  H          0.97273100       0.09857700       0.62745400
   129  C          0.07782000       0.98432820       0.25072150
   130  C          0.92218000       0.01567180       0.74927850
   131  H          0.03840900       0.93368100       0.20868200
   132  H          0.96159100       0.06631900       0.79131800
   133  C          0.14142000       0.07834180       0.21582150
   134  C          0.85858000       0.92165820       0.78417850
   135  C          0.29142000       0.05488180       0.06878150
   136  C          0.70858000       0.94511820       0.93121850
   137  H          0.39920000       0.06471600       0.94988600
   138  H          0.60080000       0.93528400       0.05011400
   139  H          0.25120000       0.14651500       0.95438500
   140  H          0.74880000       0.85348500       0.04561500
