data_FOWKIO
_symmetry_space_group_name_H-M    'P1'
_symmetry_Int_Tables_number       1
loop_
_symmetry_equiv_pos_site_id
_symmetry_equiv_pos_as_xyz
1 x,y,z
_cell_length_a                   8.44363
_cell_length_b                   8.57072
_cell_length_c                   17.37703
_cell_angle_alpha                89.143519
_cell_angle_beta                 83.7082
_cell_angle_gamma                84.1842
loop_
_atom_site_label
_atom_site_type_symbol
_atom_site_fract_x
_atom_site_fract_y
_atom_site_fract_z
     1  S          0.62564600       0.17155500       0.06227200
     2  S          0.37435400       0.82844500       0.93772800
     3  N          0.77238180       0.39062170       0.98850300
     4  N          0.22761820       0.60937830       0.01149700
     5  N          0.39957180       0.69711170       0.19945800
     6  N          0.60042820       0.30288830       0.80054200
     7  N          0.27292180       0.49400170       0.24474800
     8  N          0.72707820       0.50599830       0.75525200
     9  N          0.58570180       0.48584170       0.09033800
    10  N          0.41429820       0.51415830       0.90966200
    11  N          0.47829180       0.42976170       0.14733800
    12  N          0.52170820       0.57023830       0.85266200
    13  C          0.65792000       0.37022000       0.04886900
    14  C          0.34208000       0.62978000       0.95113100
    15  C          0.83852000       0.25252000       0.95156100
    16  C          0.16148000       0.74748000       0.04843900
    17  C          0.77142000       0.12032000       0.98412100
    18  C          0.22858000       0.87968000       0.01587900
    19  C          0.82212000       0.97148000       0.95590890
    20  C          0.17788000       0.02852000       0.04409110
    21  H          0.77730000       0.87870000       0.97688800
    22  H          0.22270000       0.12130000       0.02311200
    23  C          0.94352000       0.95398000       0.89505890
    24  C          0.05648000       0.04602000       0.10494110
    25  H          0.98230000       0.84970000       0.87368800
    26  H          0.01770000       0.15030000       0.12631200
    27  C          0.01032000       0.08492000       0.86250900
    28  C         -0.01032000       0.91508000       0.13749100
    29  H          0.09130000       0.07330000       0.82038700
    30  H          0.90870000       0.92670000       0.17961300
    31  C          0.95932000       0.23522000       0.88978100
    32  C          0.04068000       0.76478000       0.11021900
    33  H          0.00630000       0.31930000       0.86708800
    34  H         -0.00630000       0.68070000       0.13291200
    35  C          0.81472000       0.54792000       0.96814100
    36  C          0.18528000       0.45208000       0.03185900
    37  H          0.72361200       0.60939000       0.94913000
    38  H          0.27638800       0.39061000       0.05087000
    39  H          0.90491500       0.54112000       0.92793000
    40  H          0.09508500       0.45888000       0.07207000
    41  H          0.84381500       0.59818000       0.01376000
    42  H          0.15618500       0.40182000       0.98624000
    43  C          0.39502000       0.53722000       0.19189900
    44  C          0.60498000       0.46278000       0.80810100
    45  C          0.27542000       0.75272000       0.25399900
    46  C          0.72458000       0.24728000       0.74600100
    47  C          0.19442000       0.62482000       0.28173900
    48  C          0.80558000       0.37518000       0.71826100
    49  C          0.06022000       0.64372000       0.33601100
    50  C          0.93978000       0.35628000       0.66398900
    51  H          0.00430000       0.55930000       0.35511200
    52  H         -0.00430000       0.44070000       0.64488800
    53  C          0.01082000       0.79482000       0.36186100
    54  C         -0.01082000       0.20518000       0.63813900
    55  H          0.91370000       0.81030000       0.40001200
    56  H          0.08630000       0.18970000       0.59998800
    57  C          0.09362000       0.92222000       0.33567110
    58  C          0.90638000       0.07778000       0.66432890
    59  H          0.05730000       0.02630000       0.35301300
    60  H          0.94270000       0.97370000       0.64698700
    61  C          0.22822000       0.90362000       0.28146100
    62  C          0.77178000       0.09638000       0.71853900
    63  H          0.28730000      -0.00870000       0.26411200
    64  H          0.71270000       0.00870000       0.73588800
    65  C          0.51332000       0.79682000       0.15987100
    66  C          0.48668000       0.20318000       0.84012900
    67  H          0.61191400       0.73299000       0.14178000
    68  H          0.38808600       0.26701000       0.85822000
    69  H          0.53641400       0.87571500       0.19565000
    70  H          0.46358600       0.12428500       0.80435000
    71  H          0.46749000       0.84811500       0.11598000
    72  H          0.53251000       0.15188500       0.88402000
    73  C          0.23192000       0.33322000       0.25374100
    74  C          0.76808000       0.66678000       0.74625900
    75  H          0.17331500       0.30816000       0.21217000
    76  H          0.82668500       0.69184000       0.78783000
    77  H          0.16741500       0.32265000       0.30227000
    78  H          0.83258500       0.67735000       0.69773000
    79  H          0.32821200       0.26319000       0.25297000
    80  H          0.67178800       0.73681000       0.74703000
    81  N          0.87942000       0.43247190       0.18541900
    82  N          0.12058000       0.56752810       0.81458100
    83  N          0.63402000       0.05282000       0.29665900
    84  N          0.36598000       0.94718000       0.70334100
    85  N          0.31272000       0.08325190       0.48097900
    86  N          0.68728000       0.91674810       0.51902100
    87  N          0.04782000       0.70322000       0.58075900
    88  N          0.95218000       0.29678000       0.41924100
    89  C          0.57292000       0.45612000       0.34102900
    90  C          0.42708000       0.54388000       0.65897100
    91  C          0.60022000       0.61932000       0.33944900
    92  C          0.39978000       0.38068000       0.66055100
    93  H          0.68730000       0.65620000       0.30471100
    94  H          0.31270000       0.34380000       0.69528900
    95  C          0.50692000       0.72462000       0.38579900
    96  C          0.49308000       0.27538000       0.61420100
    97  H          0.52930000       0.83030000       0.38431100
    98  H          0.47070000       0.16970000       0.61568900
    99  C          0.37612000       0.67822000       0.43796900
   100  C          0.62388000       0.32178000       0.56203100
   101  C          0.35272000       0.51442000       0.44161900
   102  C          0.64728000       0.48558000       0.55838100
   103  H          0.26930000       0.47920000       0.47601100
   104  H          0.73070000       0.52080000       0.52398900
   105  C          0.44782000       0.40872000       0.39591900
   106  C          0.55218000       0.59128000       0.60408100
   107  H          0.43120000       0.30330000       0.39961100
   108  H          0.56880000       0.69670000       0.60038900
   109  C          0.66242000       0.34972000       0.28925900
   110  C          0.33758000       0.65028000       0.71074100
   111  C          0.78312000       0.39552000       0.23203100
   112  C          0.21688000       0.60448000       0.76796900
   113  C          0.64522000       0.18522000       0.29317100
   114  C          0.35478000       0.81478000       0.70682900
   115  C          0.27662000       0.78762000       0.48384900
   116  C          0.72338000       0.21238000       0.51615100
   117  C          0.29742000       0.95152000       0.48187900
   118  C          0.70258000       0.04848000       0.51812100
   119  C          0.14892000       0.74172000       0.53718100
   120  C          0.85108000       0.25828000       0.46281900
