data_FOXMEK10
_symmetry_space_group_name_H-M    'P1'
_symmetry_Int_Tables_number       1
loop_
_symmetry_equiv_pos_site_id
_symmetry_equiv_pos_as_xyz
1 x,y,z
_cell_length_a                   4.6752
_cell_length_b                   7.7734
_cell_length_c                   10.0524
_cell_angle_alpha                92.274
_cell_angle_beta                 97.123
_cell_angle_gamma                90.494
loop_
_atom_site_label
_atom_site_type_symbol
_atom_site_fract_x
_atom_site_fract_y
_atom_site_fract_z
     1  Cl         0.57311000       0.28963700       0.41148500
     2  Cl         0.42689000       0.71036300       0.58851500
     3  Cl         0.42571000       0.25307800       0.09183600
     4  Cl         0.57429000       0.74692200       0.90816400
     5  H          0.48260000       0.27240000       0.21730000
     6  H          0.51740000       0.72760000       0.78270000
     7  N          0.16904000       0.32003000       0.64732000
     8  N          0.83096000       0.67997000       0.35268000
     9  C          0.02275000       0.41383000       0.73073000
    10  C         -0.02275000       0.58617000       0.26927000
    11  C          0.87305000       0.33233000       0.82002000
    12  C          0.12695000       0.66767000       0.17998000
    13  C          0.87025000       0.15433000       0.82053000
    14  C          0.12975000       0.84567000       0.17947000
    15  C          0.01905000       0.06043000       0.73093000
    16  C         -0.01905000       0.93957000       0.26907000
    17  C          0.16945000       0.14663000       0.64422000
    18  C          0.83055000       0.85337000       0.35578000
    19  H          0.02960000       0.53240000       0.72130000
    20  H         -0.02960000       0.46760000       0.27870000
    21  H          0.78130000       0.39550000       0.89230000
    22  H          0.21870000       0.60450000       0.10770000
    23  H          0.76240000       0.09240000       0.87730000
    24  H          0.23760000       0.90760000       0.12270000
    25  H          0.02360000       0.94460000       0.73830000
    26  H         -0.02360000       0.05540000       0.26170000
    27  H          0.25850000       0.09840000       0.57930000
    28  H          0.74150000       0.90160000       0.42070000
    29  H          0.27160000       0.37640000       0.59930000
    30  H          0.72840000       0.62360000       0.40070000
