data_FOZHAD
_symmetry_space_group_name_H-M    'P1'
_symmetry_Int_Tables_number       1
loop_
_symmetry_equiv_pos_site_id
_symmetry_equiv_pos_as_xyz
1 x,y,z
_cell_length_a                   9.1022
_cell_length_b                   7.0631
_cell_length_c                   14.5041
_cell_angle_alpha                90.0
_cell_angle_beta                 95.761
_cell_angle_gamma                90.0
loop_
_atom_site_label
_atom_site_type_symbol
_atom_site_fract_x
_atom_site_fract_y
_atom_site_fract_z
     1  C          0.76233000       0.96986000       0.33302000
     2  C          0.23767000       0.46986000       0.66698000
     3  Cl         0.77500800       0.00580000       0.45019500
     4  Cl         0.22499200       0.50580000       0.54980500
     5  C          0.88273000       0.91015000       0.28922000
     6  C          0.11727000       0.41015000       0.71078000
     7  C          0.87523000       0.89376000       0.19382000
     8  C          0.12477000       0.39376000       0.80618000
     9  C          0.74773000       0.93235000       0.13722000
    10  C          0.25227000       0.43235000       0.86278000
    11  Cl         0.74158800       0.92038000       0.01899500
    12  Cl         0.25841200       0.42038000       0.98100500
    13  C          0.62263000      -0.01555000       0.18012000
    14  C          0.37737000       0.48445000       0.81988000
    15  Cl         0.45737700       0.02091000       0.11448500
    16  Cl         0.54262300       0.52091000       0.88551500
    17  C          0.62973000       0.00445000       0.27722000
    18  C          0.37027000       0.50445000       0.72278000
    19  Cl         0.47622700       0.07791000       0.32690500
    20  Cl         0.52377300       0.57791000       0.67309500
    21  C          0.03393000       0.85675000       0.32822000
    22  C          0.96607000       0.35675000       0.67178000
    23  O          0.08953000       0.84656000       0.40552000
    24  O          0.91047000       0.34656000       0.59448000
    25  C          0.02333000       0.83355000       0.16912000
    26  C          0.97667000       0.33355000       0.83088000
    27  O          0.07042000       0.80666000       0.09712000
    28  O          0.92958000       0.30666000       0.90288000
    29  O          0.11282000       0.81136000       0.25322000
    30  O          0.88718000       0.31136000       0.74678000
    31  C          0.01713000       0.31975000       0.15372000
    32  C          0.98287000       0.81975000       0.84628000
    33  H          0.02650000       0.27370000       0.08330000
    34  H          0.97350000       0.77370000       0.91670000
    35  C          0.13264000       0.28495000       0.21932000
    36  C          0.86736000       0.78495000       0.78068000
    37  H          0.22840000       0.25560000       0.20430000
    38  H          0.77160000       0.75560000       0.79570000
    39  C          0.11533000       0.31015000       0.31402000
    40  C          0.88467000       0.81015000       0.68598000
    41  H          0.19740000       0.28150000       0.36220000
    42  H          0.80260000       0.78150000       0.63780000
    43  C          0.98233000       0.37245000       0.34152000
    44  C          0.01767000       0.87245000       0.65848000
    45  H          0.97040000       0.38250000       0.41120000
    46  H          0.02960000       0.88250000       0.58880000
    47  C          0.86053000       0.41095000       0.27542000
    48  C          0.13947000       0.91095000       0.72458000
    49  C          0.71753000       0.47464000       0.30132000
    50  C          0.28247000       0.97464000       0.69868000
    51  C          0.69033000       0.50585000       0.39422000
    52  C          0.30967000       0.00585000       0.60578000
    53  H          0.75040000       0.49470000       0.45430000
    54  H          0.24960000      -0.00530000       0.54570000
    55  C          0.55323000       0.56655000       0.41562000
    56  C          0.44677000       0.06655000       0.58438000
    57  H          0.52960000       0.63100000       0.47940000
    58  H          0.47040000       0.13100000       0.52060000
    59  C          0.43933000       0.59955000       0.34522000
    60  C          0.56067000       0.09955000       0.65478000
    61  H          0.34650000       0.63470000       0.36330000
    62  H          0.65350000       0.13470000       0.63670000
    63  C          0.46273000       0.57195000       0.25432000
    64  C          0.53727000       0.07195000       0.74568000
    65  H          0.38740000       0.59760000       0.20220000
    66  H          0.61260000       0.09760000       0.79780000
    67  C          0.60173000       0.50815000       0.23002000
    68  C          0.39827000       0.00815000       0.76998000
    69  C          0.62503000       0.48015000       0.13462000
    70  C          0.37497000       0.98015000       0.86538000
    71  H          0.53630000       0.49050000       0.08520000
    72  H          0.46370000      -0.00950000       0.91480000
    73  C          0.75763000       0.42035000       0.11082000
    74  C          0.24237000       0.92035000       0.88918000
    75  H          0.79040000       0.39470000       0.04430000
    76  H          0.20960000       0.89470000       0.95570000
    77  C          0.87913000       0.38414000       0.18002000
    78  C          0.12087000       0.88414000       0.81998000
