data_FPPXAD
_symmetry_space_group_name_H-M    'P1'
_symmetry_Int_Tables_number       1
loop_
_symmetry_equiv_pos_site_id
_symmetry_equiv_pos_as_xyz
1 x,y,z
_cell_length_a                   17.1886
_cell_length_b                   8.9044
_cell_length_c                   14.5116
_cell_angle_alpha                90.0
_cell_angle_beta                 114.603
_cell_angle_gamma                90.0
loop_
_atom_site_label
_atom_site_type_symbol
_atom_site_fract_x
_atom_site_fract_y
_atom_site_fract_z
     1  C          0.26880000       0.06920000       0.66120000
     2  C          0.73120000       0.56920000       0.83880000
     3  C          0.73120000       0.93080000       0.33880000
     4  C          0.26880000       0.43080000       0.16120000
     5  C          0.34810000       0.93930000       0.31440000
     6  C          0.65190000       0.43930000       0.18560000
     7  C          0.65190000       0.06070000       0.68560000
     8  C          0.34810000       0.56070000       0.81440000
     9  C          0.15810000       0.88210000       0.36520000
    10  C          0.84190000       0.38210000       0.13480000
    11  C          0.84190000       0.11790000       0.63480000
    12  C          0.15810000       0.61790000       0.86520000
    13  C          0.18130000       0.04620000       0.66380000
    14  C          0.81870000       0.54620000       0.83620000
    15  C          0.81870000       0.95380000       0.33620000
    16  C          0.18130000       0.45380000       0.16380000
    17  C          0.33430000       0.86340000       0.22550000
    18  C          0.66570000       0.36340000       0.27450000
    19  C          0.66570000       0.13660000       0.77450000
    20  C          0.33430000       0.63660000       0.72550000
    21  C          0.11280000       0.10980000       0.56460000
    22  C          0.88720000       0.60980000       0.93540000
    23  C          0.88720000       0.89020000       0.43540000
    24  C          0.11280000       0.39020000       0.06460000
    25  C          0.39560000       0.86080000       0.18640000
    26  C          0.60440000       0.36080000       0.31360000
    27  C          0.60440000       0.13920000       0.81360000
    28  C          0.39560000       0.63920000       0.68640000
    29  C          0.12770000       0.27550000       0.54880000
    30  C          0.87230000       0.77550000       0.95120000
    31  C          0.87230000       0.72450000       0.45120000
    32  C          0.12770000       0.22450000       0.04880000
    33  C          0.47190000       0.94140000       0.24040000
    34  C          0.52810000       0.44140000       0.25960000
    35  C          0.52810000       0.05860000       0.75960000
    36  C          0.47190000       0.55860000       0.74040000
    37  C          0.21570000       0.28990000       0.55180000
    38  C          0.78430000       0.78990000       0.94820000
    39  C          0.78430000       0.71010000       0.44820000
    40  C          0.21570000       0.21010000       0.05180000
    41  C          0.48690000       0.01560000       0.32790000
    42  C          0.51310000       0.51560000       0.17210000
    43  C          0.51310000      -0.01560000       0.67210000
    44  C          0.48690000       0.48440000       0.82790000
    45  C          0.28100000       0.23200000       0.64430000
    46  C          0.71900000       0.73200000       0.85570000
    47  C          0.71900000       0.76800000       0.35570000
    48  C          0.28100000       0.26800000       0.14430000
    49  C          0.42310000       0.01780000       0.36870000
    50  C          0.57690000       0.51780000       0.13130000
    51  C          0.57690000       0.98220000       0.63130000
    52  C          0.42310000       0.48220000       0.86870000
    53  C          0.27850000       0.93820000       0.35140000
    54  C          0.72150000       0.43820000       0.14860000
    55  C          0.72150000       0.06180000       0.64860000
    56  C          0.27850000       0.56180000       0.85140000
    57  C          0.15040000       0.73090000       0.40480000
    58  C          0.84960000       0.23090000       0.09520000
    59  C          0.84960000       0.26910000       0.59520000
    60  C          0.15040000       0.76910000       0.90480000
    61  C          0.07090000       0.93610000       0.28120000
    62  C          0.92910000       0.43610000       0.21880000
    63  C          0.92910000       0.06390000       0.71880000
    64  C          0.07090000       0.56390000       0.78120000
    65  F          0.12270000       0.62600000       0.33620000
    66  F          0.87730000       0.12600000       0.16380000
    67  F          0.87730000       0.37400000       0.66380000
    68  F          0.12270000       0.87400000       0.83620000
    69  F          0.22550000       0.68430000       0.47390000
    70  F          0.77450000       0.18430000       0.02610000
    71  F          0.77450000       0.31570000       0.52610000
    72  F          0.22550000       0.81570000       0.97390000
    73  F          0.09790000       0.72680000       0.45180000
    74  F          0.90210000       0.22680000       0.04820000
    75  F          0.90210000       0.27320000       0.54820000
    76  F          0.09790000       0.77320000       0.95180000
    77  F          0.00780000       0.92940000       0.30850000
    78  F         -0.00780000       0.42940000       0.19150000
    79  F         -0.00780000       0.07060000       0.69150000
    80  F          0.00780000       0.57060000       0.80850000
    81  F          0.04870000       0.85580000       0.19690000
    82  F          0.95130000       0.35580000       0.30310000
    83  F          0.95130000       0.14420000       0.80310000
    84  F          0.04870000       0.64420000       0.69690000
    85  F          0.07900000       0.07700000       0.25770000
    86  F          0.92100000       0.57700000       0.24230000
    87  F          0.92100000       0.92300000       0.74230000
    88  F          0.07900000       0.42300000       0.75770000
    89  H          0.31600000       0.03000000       0.72900000
    90  H          0.68400000       0.53000000       0.77100000
    91  H          0.68400000       0.97000000       0.27100000
    92  H          0.31600000       0.47000000       0.22900000
    93  H          0.27600000       0.80700000       0.18900000
    94  H          0.72400000       0.30700000       0.31100000
    95  H          0.72400000       0.19300000       0.81100000
    96  H          0.27600000       0.69300000       0.68900000
    97  H          0.17900000       0.09900000       0.72600000
    98  H          0.82100000       0.59900000       0.77400000
    99  H          0.82100000       0.90100000       0.27400000
   100  H          0.17900000       0.40100000       0.22600000
   101  H          0.17000000       0.93200000       0.67100000
   102  H          0.83000000       0.43200000       0.82900000
   103  H          0.83000000       0.06800000       0.32900000
   104  H          0.17000000       0.56800000       0.17100000
   105  H          0.05200000       0.09500000       0.56200000
   106  H          0.94800000       0.59500000       0.93800000
   107  H          0.94800000       0.90500000       0.43800000
   108  H          0.05200000       0.40500000       0.06200000
   109  H          0.38600000       0.80400000       0.12000000
   110  H          0.61400000       0.30400000       0.38000000
   111  H          0.61400000       0.19600000       0.88000000
   112  H          0.38600000       0.69600000       0.62000000
   113  H          0.51800000       0.94400000       0.21300000
   114  H          0.48200000       0.44400000       0.28700000
   115  H          0.48200000       0.05600000       0.78700000
   116  H          0.51800000       0.55600000       0.71300000
   117  H          0.08300000       0.31000000       0.48100000
   118  H          0.91700000       0.81000000       0.01900000
   119  H          0.91700000       0.69000000       0.51900000
   120  H          0.08300000       0.19000000       0.98100000
   121  H          0.12100000       0.33700000       0.60600000
   122  H          0.87900000       0.83700000       0.89400000
   123  H          0.87900000       0.66300000       0.39400000
   124  H          0.12100000       0.16300000       0.10600000
   125  H          0.22700000       0.40600000       0.54800000
   126  H          0.77300000       0.90600000       0.95200000
   127  H          0.77300000       0.59400000       0.45200000
   128  H          0.22700000       0.09400000       0.04800000
   129  H          0.54400000       0.07000000       0.36500000
   130  H          0.45600000       0.57000000       0.13500000
   131  H          0.45600000       0.93000000       0.63500000
   132  H          0.54400000       0.43000000       0.86500000
   133  H          0.43300000       0.07300000       0.43400000
   134  H          0.56700000       0.57300000       0.06600000
   135  H          0.56700000       0.92700000       0.56600000
   136  H          0.43300000       0.42700000       0.93400000
   137  H          0.28700000       0.29700000       0.70700000
   138  H          0.71300000       0.79700000       0.79300000
   139  H          0.71300000       0.70300000       0.29300000
   140  H          0.28700000       0.20300000       0.20700000
   141  H          0.34100000       0.24700000       0.64000000
   142  H          0.65900000       0.74700000       0.86000000
   143  H          0.65900000       0.75300000       0.36000000
   144  H          0.34100000       0.25300000       0.14000000
   145  N          0.21290000       0.85740000       0.31180000
   146  N          0.78710000       0.35740000       0.18820000
   147  N          0.78710000       0.14260000       0.68820000
   148  N          0.21290000       0.64260000       0.81180000
   149  O          0.27470000      -0.01540000       0.57820000
   150  O          0.72530000       0.48460000       0.92180000
   151  O          0.72530000       0.01540000       0.42180000
   152  O          0.27470000       0.51540000       0.07820000
   153  O          0.12260000       0.02200000       0.48340000
   154  O          0.87740000       0.52200000       0.01660000
   155  O          0.87740000       0.97800000       0.51660000
   156  O          0.12260000       0.47800000       0.98340000
   157  O          0.21670000       0.20590000       0.46350000
   158  O          0.78330000       0.70590000       0.03650000
   159  O          0.78330000       0.79410000       0.53650000
   160  O          0.21670000       0.29410000       0.96350000
   161  O          0.29330000       0.02370000       0.43010000
   162  O          0.70670000       0.52370000       0.06990000
   163  O          0.70670000       0.97630000       0.56990000
   164  O          0.29330000       0.47630000       0.93010000
   165  P          0.21050000       0.03030000       0.47020000
   166  P          0.78950000       0.53030000       0.02980000
   167  P          0.78950000       0.96970000       0.52980000
   168  P          0.21050000       0.46970000       0.97020000
   169  C          0.50610000       0.13740000       0.03990000
   170  C          0.49390000       0.63740000       0.46010000
   171  C          0.49390000       0.86260000       0.96010000
   172  C          0.50610000       0.36260000       0.53990000
   173  C          0.57780000       0.06590000       0.05720000
   174  C          0.42220000       0.56590000       0.44280000
   175  C          0.42220000       0.93410000       0.94280000
   176  C          0.57780000       0.43410000       0.55720000
   177  C          0.42530000       0.07860000       0.98150000
   178  C          0.57470000       0.57860000       0.51850000
   179  C          0.57470000       0.92140000       0.01850000
   180  C          0.42530000       0.42140000       0.48150000
   181  H          0.51300000       0.24300000       0.07400000
   182  H          0.48700000       0.74300000       0.42600000
   183  H          0.48700000       0.75700000       0.92600000
   184  H          0.51300000       0.25700000       0.57400000
   185  H          0.63700000       0.10900000       0.09500000
   186  H          0.36300000       0.60900000       0.40500000
   187  H          0.36300000       0.89100000       0.90500000
   188  H          0.63700000       0.39100000       0.59500000
   189  H          0.37000000       0.14400000       0.96100000
   190  H          0.63000000       0.64400000       0.53900000
   191  H          0.63000000       0.85600000       0.03900000
   192  H          0.37000000       0.35600000       0.46100000
