data_FUDFUI
_symmetry_space_group_name_H-M    'P1'
_symmetry_Int_Tables_number       1
loop_
_symmetry_equiv_pos_site_id
_symmetry_equiv_pos_as_xyz
1 x,y,z
_cell_length_a                   9.1473
_cell_length_b                   9.2783
_cell_length_c                   11.6094
_cell_angle_alpha                89.8794
_cell_angle_beta                 85.0744
_cell_angle_gamma                84.5735
loop_
_atom_site_label
_atom_site_type_symbol
_atom_site_fract_x
_atom_site_fract_y
_atom_site_fract_z
     1  S          0.42914600       0.75152600       0.77838500
     2  S          0.57085400       0.24847400       0.22161500
     3  O          0.68682000       0.45092000       0.50933160
     4  O          0.31318000       0.54908000       0.49066840
     5  N          0.59022000       0.50892000       0.60020170
     6  N          0.40978000       0.49108000       0.39979830
     7  C          0.20234000       0.14844000       0.88393000
     8  C          0.79766000       0.85156000       0.11607000
     9  H          0.23721800       0.05248700       0.90336500
    10  H          0.76278200       0.94751300       0.09663500
    11  O          0.63592190       0.41489190       0.90087160
    12  O          0.36407810       0.58510810       0.09912840
    13  H          0.62030000       0.38320000       0.96130000
    14  H          0.37970000       0.61680000       0.03870000
    15  N          0.54472000       0.53952000       0.88913170
    16  N          0.45528000       0.46048000       0.11086830
    17  C          0.28764000       0.22924000       0.80903000
    18  C          0.71236000       0.77076000       0.19097000
    19  H          0.38223900       0.18876000       0.77846400
    20  H          0.61776100       0.81124000       0.22153600
    21  C          0.06633000       0.20863000       0.93013000
    22  C          0.93367000       0.79137000       0.06987000
    23  H          0.00700600       0.15473600       0.98210700
    24  H         -0.00700600       0.84526400       0.01789300
    25  O          0.34362190       0.76820190       0.88858150
    26  O          0.65637810       0.23179810       0.11141850
    27  O          0.35492000       0.73812000       0.67530150
    28  O          0.64508000       0.26188000       0.32469850
    29  C          0.23713000       0.36723000       0.77823000
    30  C          0.76287000       0.63277000       0.22177000
    31  H          0.29698100       0.42017200       0.72595700
    32  H          0.70301900       0.57982800       0.27404300
    33  C          0.01653000       0.34923000       0.89973000
    34  C          0.98347000       0.65077000       0.10027000
    35  H          0.92335600       0.39061100       0.93275600
    36  H          0.07664400       0.60938900       0.06724400
    37  C          0.09933000       0.43033000       0.82252000
    38  C          0.90067000       0.56967000       0.17748000
    39  H          0.63050000       0.43450000       0.46440000
    40  H          0.36950000       0.56550000       0.53560000
    41  C          0.04683000       0.58423000       0.78703000
    42  C          0.95317000       0.41577000       0.21297000
    43  H          0.09528900       0.60294000       0.70963500
    44  H          0.90471100       0.39706000       0.29036500
    45  H          0.08051300       0.65288500       0.84191400
    46  H          0.91948700       0.34711500       0.15808600
    47  C          0.87993000       0.61693000       0.78282000
    48  C          0.12007000       0.38307000       0.21718000
    49  H          0.82962100       0.59983700       0.85985500
    50  H          0.17037900       0.40016300       0.14014500
    51  H          0.85724300       0.72003500       0.76318100
    52  H          0.14275700       0.27996500       0.23681900
    53  C          0.82243000       0.52273000       0.69412000
    54  C          0.17757000       0.47727000       0.30588000
    55  H          0.87061300       0.54397500       0.61706200
    56  H          0.12938700       0.45602500       0.38293800
    57  H          0.85229900       0.42016300       0.71147400
    58  H          0.14770100       0.57983700       0.28852600
    59  C          0.65783000       0.54053000       0.68752000
    60  C          0.34217000       0.45947000       0.31248000
    61  C          0.55693000       0.59403000       0.78862000
    62  C          0.44307000       0.40597000       0.21138000
    63  C          0.54303000       0.89293000       0.75982000
    64  C          0.45697000       0.10707000       0.24018000
    65  C          0.60233000       0.94523000       0.85562000
    66  C          0.39767000       0.05477000       0.14438000
    67  H          0.58275900       0.90431600       0.92981400
    68  H          0.41724100       0.09568400       0.07018600
    69  C          0.57174000       0.95013000       0.65032000
    70  C          0.42826000       0.04987000       0.34968000
    71  H          0.53117400       0.91235200       0.58531800
    72  H          0.46882600       0.08764800       0.41468200
    73  C          0.69023000       0.05803000       0.84103000
    74  C          0.30977000       0.94197000       0.15897000
    75  H          0.73171500       0.09554600       0.90558000
    76  H          0.26828500       0.90445400       0.09442000
    77  C          0.65974000       0.06244000       0.63773000
    78  C          0.34026000       0.93756000       0.36227000
    79  H          0.68037300       0.10286400       0.56350500
    80  H          0.31962700       0.89713600       0.43649500
    81  C          0.71804000       0.11633000       0.73243000
    82  C          0.28196000       0.88367000       0.26757000
    83  H          0.77802400       0.19443000       0.72311800
    84  H          0.22197600       0.80557000       0.27688200
    85  C          0.00414000       0.85364000       0.52414000
    86  C         -0.00414000       0.14636000       0.47586000
    87  H          0.00809700       0.75302800       0.54040300
    88  H         -0.00809700       0.24697200       0.45959700
    89  C          0.05714000       0.94775000       0.59894000
    90  C          0.94286000       0.05225000       0.40106000
    91  H          0.09564900       0.91176900       0.66795100
    92  H          0.90435100       0.08823100       0.33204900
    93  C          0.05464000       0.09305000       0.57434000
    94  C          0.94536000       0.90695000       0.42566000
    95  H          0.09343100       0.15648100       0.62539800
    96  H          0.90656900       0.84351900       0.37460200
