data_FUMJOP
_symmetry_space_group_name_H-M    'P1'
_symmetry_Int_Tables_number       1
loop_
_symmetry_equiv_pos_site_id
_symmetry_equiv_pos_as_xyz
1 x,y,z
_cell_length_a                   4.84235
_cell_length_b                   12.552215
_cell_length_c                   13.467416
_cell_angle_alpha                110.87811
_cell_angle_beta                 99.7909
_cell_angle_gamma                96.9029
loop_
_atom_site_label
_atom_site_type_symbol
_atom_site_fract_x
_atom_site_fract_y
_atom_site_fract_z
     1  Cl         0.38000120       0.41684500       0.33818400
     2  Cl         0.61999880       0.58315500       0.66181600
     3  N          0.81134000       0.59675160       0.09972150
     4  N          0.18866000       0.40324840       0.90027850
     5  H          0.87650000       0.59120000       0.04601900
     6  H          0.12350000       0.40880000       0.95398100
     7  H          0.70060000       0.64420000       0.11620000
     8  H          0.29940000       0.35580000       0.88380000
     9  N          0.86224000       0.40795140       0.07245130
    10  N          0.13776000       0.59204860       0.92754870
    11  N          0.90324000       0.21362150       0.06078140
    12  N          0.09676000       0.78637850       0.93921860
    13  N          0.67454000       0.20939150       0.19143140
    14  N          0.32546000       0.79060850       0.80856860
    15  H          0.60560000       0.18220000       0.23520000
    16  H          0.39440000       0.81780000       0.76480000
    17  C          0.56214000       0.41270180       0.23768160
    18  C          0.43786000       0.58729820       0.76231840
    19  C          0.60384000       0.50557180       0.20680160
    20  C          0.39616000       0.49442820       0.79319840
    21  H          0.53073000       0.57312800       0.24043400
    22  H          0.46927000       0.42687200       0.75956600
    23  C          0.75644000       0.50028170       0.12453160
    24  C          0.24356000       0.49971830       0.87546840
    25  C          0.81604000       0.31813170       0.10385150
    26  C          0.18396000       0.68186830       0.89614850
    27  C          0.67214000       0.31614170       0.18506160
    28  C          0.32786000       0.68385830       0.81493840
    29  C          0.81425000       0.15313190       0.11670170
    30  C          0.18575000       0.84686810       0.88329830
    31  H          0.84645400       0.07684700       0.10489200
    32  H          0.15354600       0.92315300       0.89510800
    33  Cl        -0.00522890       0.32772500       0.48698400
    34  Cl         0.00522890       0.67227500       0.51301600
    35  N          0.57665000       0.22370170       0.77070150
    36  N          0.42335000       0.77629830       0.22929850
    37  H          0.47860000       0.18020000       0.79020000
    38  H          0.52140000       0.81980000       0.20980000
    39  H          0.73560000       0.26020000       0.81320000
    40  H          0.26440000       0.73980000       0.18680000
    41  N          0.33953000       0.12014130       0.58977120
    42  N          0.66047000       0.87985870       0.41022880
    43  N          0.13584000       0.02875150       0.39462140
    44  N          0.86416000       0.97124850       0.60537860
    45  H         -0.00650000      -0.01120000       0.39891900
    46  H          0.00650000       0.01120000       0.60108100
    47  N          0.44864000       0.12118150       0.33341140
    48  N          0.55136000       0.87881850       0.66658860
    49  C          0.74834000       0.24751160       0.52420160
    50  C          0.25166000       0.75248840       0.47579840
    51  C          0.76494000       0.26673170       0.63261160
    52  C          0.23506000       0.73326830       0.36738840
    53  H          0.91443400       0.32416900       0.68744600
    54  H          0.08556600       0.67583100       0.31255400
    55  C          0.56014000       0.20119170       0.66223160
    56  C          0.43986000       0.79880830       0.33776840
    57  C          0.33494000       0.10446160       0.48556160
    58  C          0.66506000       0.89553840       0.51443840
    59  C          0.52724000       0.16182160       0.44624150
    60  C          0.47276000       0.83817840       0.55375850
    61  C          0.21434000       0.04258180       0.30710170
    62  C          0.78566000       0.95741820       0.69289830
    63  H          0.11011200      -0.00036200       0.23396400
    64  H          0.88988800       0.00036200       0.76603600
    65  O          0.25374000       0.13466150       0.91346870
    66  O          0.74626000       0.86533850       0.08653130
    67  H          0.15270000       0.16530000       0.96170000
    68  H          0.84730000       0.83470000       0.03830000
    69  H          0.42070000       0.14830000       0.94880000
    70  H          0.57930000       0.85170000       0.05120000
