data_FUMZUI
_symmetry_space_group_name_H-M    'P1'
_symmetry_Int_Tables_number       1
loop_
_symmetry_equiv_pos_site_id
_symmetry_equiv_pos_as_xyz
1 x,y,z
_cell_length_a                   9.1325
_cell_length_b                   11.8096
_cell_length_c                   11.7082
_cell_angle_alpha                90.0
_cell_angle_beta                 112.502
_cell_angle_gamma                90.0
loop_
_atom_site_label
_atom_site_type_symbol
_atom_site_fract_x
_atom_site_fract_y
_atom_site_fract_z
     1  O          0.23935000       0.32344000       0.83724000
     2  O          0.76065000       0.82344000       0.16276000
     3  C          0.33408000       0.30036000       0.77426000
     4  C          0.66592000       0.80036000       0.22574000
     5  C          0.36508000       0.18855000       0.75026000
     6  C          0.63492000       0.68855000       0.24974000
     7  C          0.45598000       0.16716000       0.68636000
     8  C          0.54402000       0.66716000       0.31364000
     9  C          0.52218000       0.25546000       0.64076000
    10  C          0.47782000       0.75546000       0.35924000
    11  C          0.61799000       0.23517000       0.57507000
    12  C          0.38201000       0.73517000       0.42493000
    13  C          0.68319000       0.32029000       0.53447000
    14  C          0.31681000       0.82029000       0.46553000
    15  C          0.65508000       0.43358000       0.56017000
    16  C          0.34492000       0.93358000       0.43983000
    17  C          0.56008000       0.45596000       0.62116000
    18  C          0.43992000       0.95596000       0.37884000
    19  C          0.49137000       0.36846000       0.66456000
    20  C          0.50863000       0.86846000       0.33544000
    21  C          0.39737000       0.38975000       0.73385000
    22  C          0.60263000       0.88975000       0.26615000
    23  C          0.36637000       0.50725000       0.76605000
    24  C          0.63363000       0.00725000       0.23395000
    25  C          0.23217000       0.56875000       0.69075000
    26  C          0.76783000       0.06875000       0.30925000
    27  C          0.12167000       0.52176000       0.58155000
    28  C          0.87833000       0.02176000       0.41845000
    29  C         -0.00838000       0.58456000       0.51087000
    30  C          0.00838000       0.08456000       0.48913000
    31  C          0.96812000       0.69426000       0.54467000
    32  C          0.03188000       0.19426000       0.45533000
    33  C          0.07208000       0.73986000       0.64866000
    34  C          0.92792000       0.23986000       0.35134000
    35  C          0.20837000       0.67975000       0.72575000
    36  C          0.79163000       0.17975000       0.27425000
    37  C          0.31818000       0.72596000       0.83536000
    38  C          0.68182000       0.22596000       0.16464000
    39  C          0.44807000       0.66816000       0.90415000
    40  C          0.55193000       0.16816000       0.09585000
    41  C          0.47457000       0.55645000       0.87136000
    42  C          0.52543000       0.05645000       0.12864000
    43  O          0.60395000       0.49804000       0.94234000
    44  O          0.39605000      -0.00196000       0.05766000
    45  H          0.20330000       0.25290000       0.87320000
    46  H          0.79670000       0.75290000       0.12680000
    47  H          0.70900000       0.54460000       0.97810000
    48  H          0.29100000       0.04460000       0.02190000
    49  H          0.31710000       0.12170000       0.78220000
    50  H          0.68290000       0.62170000       0.21780000
    51  H          0.47810000       0.08370000       0.66970000
    52  H          0.52190000       0.58370000       0.33030000
    53  H          0.63990000       0.15210000       0.55680000
    54  H          0.36010000       0.65210000       0.44320000
    55  H          0.75320000       0.30300000       0.48450000
    56  H          0.24680000       0.80300000       0.51550000
    57  H          0.70880000       0.49960000       0.53210000
    58  H          0.29120000      -0.00040000       0.46790000
    59  H          0.53660000       0.53980000       0.63610000
    60  H          0.46340000       0.03980000       0.36390000
    61  H          0.13790000       0.44060000       0.55460000
    62  H          0.86210000       0.94060000       0.44540000
    63  H          0.90900000       0.54940000       0.43060000
    64  H          0.09100000       0.04940000       0.56940000
    65  H          0.87020000       0.74070000       0.48840000
    66  H          0.12980000       0.24070000       0.51160000
    67  H          0.05170000       0.82110000       0.67360000
    68  H          0.94830000       0.32110000       0.32640000
    69  H          0.29850000       0.80620000       0.86340000
    70  H          0.70150000       0.30620000       0.13660000
    71  H          0.53080000       0.70570000       0.98280000
    72  H          0.46920000       0.20570000       0.01720000
    73  P          0.00052000       0.15292000       0.95372000
    74  P         -0.00052000       0.65292000       0.04628000
    75  O          0.14715000       0.14024000       0.92994000
    76  O          0.85285000       0.64024000       0.07006000
    77  O          0.01757000       0.16486000       0.08845000
    78  O         -0.01757000       0.66486000       0.91155000
    79  C          0.11241000       0.08528000       0.17588000
    80  C          0.88759000       0.58528000       0.82412000
    81  C          0.89669000       0.28477000       0.89898000
    82  C          0.10331000       0.78477000       0.10102000
    83  C          0.86373000       0.04035000       0.88296000
    84  C          0.13627000       0.54035000       0.11704000
    85  C          0.76152000       0.00346000       0.93456000
    86  C          0.23848000       0.50346000       0.06544000
    87  C          0.65302000       0.92183000       0.87747000
    88  C          0.34698000       0.42183000       0.12253000
    89  C          0.64971000       0.87534000       0.77047000
    90  C          0.35029000       0.37534000       0.22953000
    91  C          0.75201000       0.90983000       0.71647000
    92  C          0.24799000       0.40983000       0.28353000
    93  C          0.86222000      -0.00777000       0.77597000
    94  C          0.13778000       0.49223000       0.22403000
    95  H          0.11260000       0.10420000       0.26240000
    96  H          0.88740000       0.60420000       0.73760000
    97  H          0.22780000       0.08870000       0.17890000
    98  H          0.77220000       0.58870000       0.82110000
    99  H          0.06700000       0.00430000       0.14970000
   100  H          0.93300000       0.50430000       0.85030000
   101  H          0.87240000       0.29380000       0.80510000
   102  H          0.12760000       0.79380000       0.19490000
   103  H          0.96660000       0.35190000       0.94730000
   104  H          0.03340000       0.85190000       0.05270000
   105  H          0.79080000       0.28430000       0.91300000
   106  H          0.20920000       0.78430000       0.08700000
   107  H          0.76660000       0.03790000       0.01780000
   108  H          0.23340000       0.53790000       0.98220000
   109  H          0.57310000       0.89540000       0.91550000
   110  H          0.42690000       0.39540000       0.08450000
   111  H          0.56780000       0.81200000       0.72810000
   112  H          0.43220000       0.31200000       0.27190000
   113  H          0.74700000       0.87520000       0.63320000
   114  H          0.25300000       0.37520000       0.36680000
   115  H          0.94470000       0.01830000       0.73970000
   116  H          0.05530000       0.51830000       0.26030000
