data_FUPFAZ
_symmetry_space_group_name_H-M    'P1'
_symmetry_Int_Tables_number       1
loop_
_symmetry_equiv_pos_site_id
_symmetry_equiv_pos_as_xyz
1 x,y,z
_cell_length_a                   9.243219
_cell_length_b                   9.830919
_cell_length_c                   21.4754
_cell_angle_alpha                90.0
_cell_angle_beta                 95.6086
_cell_angle_gamma                90.0
loop_
_atom_site_label
_atom_site_type_symbol
_atom_site_fract_x
_atom_site_fract_y
_atom_site_fract_z
     1  I          0.81575300       0.52166300       0.64240714
     2  I          0.18424700       0.52166300       0.85759286
     3  I          0.31575300       0.02166300       0.64240714
     4  I          0.68424700       0.02166300       0.85759286
     5  I          0.18424700       0.47833700       0.35759286
     6  I          0.81575300       0.47833700       0.14240714
     7  I          0.68424700       0.97833700       0.35759286
     8  I          0.31575300       0.97833700       0.14240714
     9  O          0.36823000       0.87423000       0.48804160
    10  O          0.63177000       0.87423000       0.01195840
    11  O          0.86823000       0.37423000       0.48804160
    12  O          0.13177000       0.37423000       0.01195840
    13  O          0.63177000       0.12577000       0.51195840
    14  O          0.36823000       0.12577000       0.98804160
    15  O          0.13177000       0.62577000       0.51195840
    16  O          0.86823000       0.62577000       0.98804160
    17  O          0.82363000       0.83364000       0.58402170
    18  O          0.17637000       0.83364000       0.91597830
    19  O          0.32363000       0.33364000       0.58402170
    20  O          0.67637000       0.33364000       0.91597830
    21  O          0.17637000       0.16636000       0.41597830
    22  O          0.82363000       0.16636000       0.08402170
    23  O          0.67637000       0.66636000       0.41597830
    24  O          0.32363000       0.66636000       0.08402170
    25  N          0.59474000       0.85034000       0.53757170
    26  N          0.40526000       0.85034000       0.96242830
    27  N          0.09474000       0.35034000       0.53757170
    28  N          0.90526000       0.35034000       0.96242830
    29  N          0.40526000       0.14966000       0.46242830
    30  N          0.59474000       0.14966000       0.03757170
    31  N          0.90526000       0.64966000       0.46242830
    32  N          0.09474000       0.64966000       0.03757170
    33  H          0.61380000       0.93260000       0.52750000
    34  H          0.38620000       0.93260000       0.97250000
    35  H          0.11380000       0.43260000       0.52750000
    36  H          0.88620000       0.43260000       0.97250000
    37  H          0.38620000       0.06740000       0.47250000
    38  H          0.61380000       0.06740000       0.02750000
    39  H          0.88620000       0.56740000       0.47250000
    40  H          0.11380000       0.56740000       0.02750000
    41  N          0.43104000       0.67514000       0.53601180
    42  N          0.56896000       0.67514000       0.96398820
    43  N          0.93104000       0.17514000       0.53601180
    44  N          0.06896000       0.17514000       0.96398820
    45  N          0.56896000       0.32486000       0.46398820
    46  N          0.43104000       0.32486000       0.03601180
    47  N          0.06896000       0.82486000       0.46398820
    48  N          0.93104000       0.82486000       0.03601180
    49  H          0.34650000       0.64160000       0.52490000
    50  H          0.65350000       0.64160000       0.97510000
    51  H          0.84650000       0.14160000       0.52490000
    52  H          0.15350000       0.14160000       0.97510000
    53  H          0.65350000       0.35840000       0.47510000
    54  H          0.34650000       0.35840000       0.02490000
    55  H          0.15350000       0.85840000       0.47510000
    56  H          0.84650000       0.85840000       0.02490000
    57  C          0.66564000       0.64154000       0.58811190
    58  C          0.33436000       0.64154000       0.91188810
    59  C          0.16564000       0.14154000       0.58811190
    60  C          0.83436000       0.14154000       0.91188810
    61  C          0.33436000       0.35846000       0.41188810
    62  C          0.66564000       0.35846000       0.08811190
    63  C          0.83436000       0.85846000       0.41188810
    64  C          0.16564000       0.85846000       0.08811190
    65  C          0.70544000       0.77884000       0.57161190
    66  C          0.29456000       0.77884000       0.92838810
    67  C          0.20544000       0.27884000       0.57161190
    68  C          0.79456000       0.27884000       0.92838810
    69  C          0.29456000       0.22116000       0.42838810
    70  C          0.70544000       0.22116000       0.07161190
    71  C          0.79456000       0.72116000       0.42838810
    72  C          0.20544000       0.72116000       0.07161190
    73  C          0.45944000       0.80344000       0.51872000
    74  C          0.54056000       0.80344000       0.98128000
    75  C          0.95944000       0.30344000       0.51872000
    76  C          0.04056000       0.30344000       0.98128000
    77  C          0.54056000       0.19656000       0.48128000
    78  C          0.45944000       0.19656000       0.01872000
    79  C          0.04056000       0.69656000       0.48128000
    80  C          0.95944000       0.69656000       0.01872000
    81  C          0.53155000       0.59494000       0.57082000
    82  C          0.46845000       0.59494000       0.92918000
    83  C          0.03155000       0.09494000       0.57082000
    84  C          0.96845000       0.09494000       0.92918000
    85  C          0.46845000       0.40506000       0.42918000
    86  C          0.53155000       0.40506000       0.07082000
    87  C          0.96845000       0.90506000       0.42918000
    88  C          0.03155000       0.90506000       0.07082000
    89  H          0.50580000       0.50760000       0.58230000
    90  H          0.49420000       0.50760000       0.91770000
    91  H          0.00580000       0.00760000       0.58230000
    92  H         -0.00580000       0.00760000       0.91770000
    93  H          0.49420000       0.49240000       0.41770000
    94  H          0.50580000       0.49240000       0.08230000
    95  H         -0.00580000      -0.00760000       0.41770000
    96  H          0.00580000      -0.00760000       0.08230000
    97  S          0.00000000       0.32022000       0.75000000
    98  S          0.50000000       0.82022000       0.75000000
    99  S         -0.00000000       0.67978000       0.25000000
   100  S          0.50000000       0.17978000       0.25000000
   101  N          0.89894000       0.06564000       0.72011180
   102  N          0.10106000       0.06564000       0.77988820
   103  N          0.39894000       0.56564000       0.72011180
   104  N          0.60106000       0.56564000       0.77988820
   105  N          0.10106000       0.93436000       0.27988820
   106  N          0.89894000       0.93436000       0.22011180
   107  N          0.60106000       0.43436000       0.27988820
   108  N          0.39894000       0.43436000       0.22011180
   109  C          0.76516000       0.11136000       0.68473000
   110  C          0.23484000       0.11136000       0.81527000
   111  C          0.26516000       0.61136000       0.68473000
   112  C          0.73484000       0.61136000       0.81527000
   113  C          0.23484000       0.88864000       0.31527000
   114  C          0.76516000       0.88864000       0.18473000
   115  C          0.73484000       0.38864000       0.31527000
   116  C          0.26516000       0.38864000       0.18473000
   117  H          0.69650000       0.13850000       0.71310000
   118  H          0.30350000       0.13850000       0.78690000
   119  H          0.19650000       0.63850000       0.71310000
   120  H          0.80350000       0.63850000       0.78690000
   121  H          0.30350000       0.86150000       0.28690000
   122  H          0.69650000       0.86150000       0.21310000
   123  H          0.80350000       0.36150000       0.28690000
   124  H          0.19650000       0.36150000       0.21310000
   125  H          0.72480000       0.03840000       0.65880000
   126  H          0.27520000       0.03840000       0.84120000
   127  H          0.22480000       0.53840000       0.65880000
   128  H          0.77520000       0.53840000       0.84120000
   129  H          0.27520000       0.96160000       0.34120000
   130  H          0.72480000       0.96160000       0.15880000
   131  H          0.77520000       0.46160000       0.34120000
   132  H          0.22480000       0.46160000       0.15880000
   133  H          0.78590000       0.18720000       0.65890000
   134  H          0.21410000       0.18720000       0.84110000
   135  H          0.28590000       0.68720000       0.65890000
   136  H          0.71410000       0.68720000       0.84110000
   137  H          0.21410000       0.81280000       0.34110000
   138  H          0.78590000       0.81280000       0.15890000
   139  H          0.71410000       0.31280000       0.34110000
   140  H          0.28590000       0.31280000       0.15890000
   141  C          0.00000000       0.14907000       0.75000000
   142  C          0.50000000       0.64907000       0.75000000
   143  C         -0.00000000       0.85093000       0.25000000
   144  C          0.50000000       0.35093000       0.25000000
   145  C          0.93856000       0.93244000       0.73173000
   146  C          0.06144000       0.93244000       0.76827000
   147  C          0.43856000       0.43244000       0.73173000
   148  C          0.56144000       0.43244000       0.76827000
   149  C          0.06144000       0.06756000       0.26827000
   150  C          0.93856000       0.06756000       0.23173000
   151  C          0.56144000       0.56756000       0.26827000
   152  C          0.43856000       0.56756000       0.23173000
   153  H          0.88750000       0.85600000       0.71640000
   154  H          0.11250000       0.85600000       0.78360000
   155  H          0.38750000       0.35600000       0.71640000
   156  H          0.61250000       0.35600000       0.78360000
   157  H          0.11250000       0.14400000       0.28360000
   158  H          0.88750000       0.14400000       0.21640000
   159  H          0.61250000       0.64400000       0.28360000
   160  H          0.38750000       0.64400000       0.21640000
