data_FUPPAI
_symmetry_space_group_name_H-M    'P1'
_symmetry_Int_Tables_number       1
loop_
_symmetry_equiv_pos_site_id
_symmetry_equiv_pos_as_xyz
1 x,y,z
_cell_length_a                   9.50422
_cell_length_b                   10.21823
_cell_length_c                   12.05264
_cell_angle_alpha                91.8512
_cell_angle_beta                 102.1202
_cell_angle_gamma                102.4692
loop_
_atom_site_label
_atom_site_type_symbol
_atom_site_fract_x
_atom_site_fract_y
_atom_site_fract_z
     1  S          0.46168500       0.40031400       0.64751400
     2  S          0.53831500       0.59968600       0.35248600
     3  S          0.74610500       0.28188500       0.44971400
     4  S          0.25389500       0.71811500       0.55028600
     5  N          0.46157150       0.26245140       0.46817120
     6  N          0.53842850       0.73754860       0.53182880
     7  N          0.21979150       0.25653150       0.50562120
     8  N          0.78020850       0.74346850       0.49437880
     9  N          0.32314180       0.86339840       0.10432130
    10  N          0.67685820       0.13660160       0.89567870
    11  O          0.24807180       0.75248860       0.11541130
    12  O          0.75192820       0.24751140       0.88458870
    13  O          0.36796180       0.89311850       0.01821120
    14  O          0.63203820       0.10688150       0.98178880
    15  C          0.37107190       0.02739180       0.39375150
    16  C          0.62892810       0.97260820       0.60624850
    17  H          0.36020000       0.00390000       0.46760000
    18  H          0.63980000      -0.00390000       0.53240000
    19  C          0.33645190       0.92863820       0.30422160
    20  C          0.66354810       0.07136180       0.69577840
    21  H          0.29880000       0.83710000       0.31490000
    22  H          0.70120000       0.16290000       0.68510000
    23  C          0.35831190       0.96740820       0.19925150
    24  C          0.64168810       0.03259180       0.80074850
    25  C          0.40962000       0.09981180       0.17853150
    26  C          0.59038000       0.90018820       0.82146850
    27  H          0.42310000       0.12270000       0.10510000
    28  H          0.57690000       0.87730000       0.89490000
    29  C          0.44062000       0.19802180       0.26772150
    30  C          0.55938000       0.80197820       0.73227850
    31  H          0.47440000       0.28990000       0.25600000
    32  H          0.52560000       0.71010000       0.74400000
    33  C          0.42175180       0.16080170       0.37440150
    34  C          0.57824820       0.83919830       0.62559850
    35  C          0.61766180       0.32413170       0.51497150
    36  C          0.38233820       0.67586830       0.48502850
    37  C          0.63303180       0.40368170       0.61268140
    38  C          0.36696820       0.59631830       0.38731860
    39  C          0.36751180       0.29467170       0.52843140
    40  C          0.63248820       0.70532830       0.47156860
    41  C          0.76562180       0.48045170       0.69402140
    42  C          0.23437820       0.51954830       0.30597860
    43  C          0.90528190       0.50999180       0.66756150
    44  C          0.09471810       0.49000820       0.33243850
    45  H          0.91540000       0.48270000       0.59410000
    46  H          0.08460000       0.51730000       0.40590000
    47  C          0.02973190       0.57913180       0.74814160
    48  C          0.97026810       0.42086820       0.25185840
    49  H          0.12380000       0.59770000       0.72910000
    50  H          0.87620000       0.40230000       0.27090000
    51  C          0.01722000       0.62075190       0.85542160
    52  C         -0.01722000       0.37924810       0.14457840
    53  H          0.10220000       0.66680000       0.91030000
    54  H          0.89780000       0.33320000       0.08970000
    55  C          0.87912000       0.59442000       0.88192160
    56  C          0.12088000       0.40558000       0.11807840
    57  H          0.86950000       0.62360000       0.95500000
    58  H          0.13050000       0.37640000       0.04500000
    59  C          0.75512000       0.52599190       0.80260150
    60  C          0.24488000       0.47400810       0.19739850
    61  H          0.66140000       0.50950000       0.82200000
    62  H          0.33860000       0.49050000       0.17800000
    63  C          0.12502000       0.18034190       0.40091160
    64  C          0.87498000       0.81965810       0.59908840
    65  H          0.16810000       0.20740000       0.33580000
    66  H          0.83190000       0.79260000       0.66420000
    67  H          0.02630000       0.19890000       0.38940000
    68  H          0.97370000       0.80110000       0.61060000
    69  H          0.11760000       0.08390000       0.40780000
    70  H          0.88240000       0.91610000       0.59220000
    71  C          0.14405190       0.28824190       0.59389150
    72  C          0.85594810       0.71175810       0.40610850
    73  H          0.04160000       0.29150000       0.55700000
    74  H          0.95840000       0.70850000       0.44300000
    75  H          0.19470000       0.37880000       0.63110000
    76  H          0.80530000       0.62120000       0.36890000
    77  C          0.13869180       0.18848180       0.68498150
    78  C          0.86130820       0.81151820       0.31501850
    79  C          0.21182000       0.08350190       0.69089160
    80  C          0.78818000       0.91649810       0.30910840
    81  H          0.26860000       0.07240000       0.63660000
    82  H          0.73140000       0.92760000       0.36340000
    83  C          0.20232000      -0.00482000       0.77557170
    84  C          0.79768000       0.00482000       0.22442830
    85  H          0.25280000       0.92410000       0.77910000
    86  H          0.74720000       0.07590000       0.22090000
    87  C          0.11962000       0.01042000       0.85467170
    88  C          0.88038000      -0.01042000       0.14532830
    89  H          0.11250000       0.94940000       0.91220000
    90  H          0.88750000       0.05060000       0.08780000
    91  C          0.04682000       0.11482000       0.84989170
    92  C          0.95318000       0.88518000       0.15010830
    93  H         -0.00900000       0.12600000       0.90490000
    94  H          0.00900000       0.87400000       0.09510000
    95  C          0.05522000       0.20282000       0.76501160
    96  C          0.94478000       0.79718000       0.23498840
    97  H          0.00390000       0.27320000       0.76140000
    98  H         -0.00390000       0.72680000       0.23860000
    99  C          0.43072000       0.59920190       0.95495160
   100  C          0.56928000       0.40079810       0.04504840
   101  H          0.38320000       0.66700000       0.92410000
   102  H          0.61680000       0.33300000       0.07590000
   103  C          0.56172000       0.63435190       0.03909160
   104  C          0.43828000       0.36564810       0.96090840
   105  H          0.60350000       0.72590000       0.06560000
   106  H          0.39650000       0.27410000       0.93440000
   107  C          0.37052000       0.46542000       0.91674160
   108  C          0.62948000       0.53458000       0.08325840
   109  H          0.28160000       0.44190000       0.85960000
   110  H          0.71840000       0.55810000       0.14040000
