data_FURWOG
_symmetry_space_group_name_H-M    'P1'
_symmetry_Int_Tables_number       1
loop_
_symmetry_equiv_pos_site_id
_symmetry_equiv_pos_as_xyz
1 x,y,z
_cell_length_a                   31.2374
_cell_length_b                   5.10566
_cell_length_c                   20.3622
_cell_angle_alpha                90.0
_cell_angle_beta                 124.5502
_cell_angle_gamma                90.0
loop_
_atom_site_label
_atom_site_type_symbol
_atom_site_fract_x
_atom_site_fract_y
_atom_site_fract_z
     1  S          0.23129719       0.71776100       0.13534300
     2  S          0.76870281       0.71776100       0.36465700
     3  S          0.73129719       0.21776100       0.13534300
     4  S          0.26870281       0.21776100       0.36465700
     5  S          0.76870281       0.28223900       0.86465700
     6  S          0.23129719       0.28223900       0.63534300
     7  S          0.26870281       0.78223900       0.86465700
     8  S          0.73129719       0.78223900       0.63534300
     9  O          0.13522500       0.85967000       0.83817200
    10  O          0.86477500       0.85967000       0.66182800
    11  O          0.63522500       0.35967000       0.83817200
    12  O          0.36477500       0.35967000       0.66182800
    13  O          0.86477500       0.14033000       0.16182800
    14  O          0.13522500       0.14033000       0.33817200
    15  O          0.36477500       0.64033000       0.16182800
    16  O          0.63522500       0.64033000       0.33817200
    17  O          0.07564500       0.79847000       0.86381100
    18  O          0.92435500       0.79847000       0.63618900
    19  O          0.57564500       0.29847000       0.86381100
    20  O          0.42435500       0.29847000       0.63618900
    21  O          0.92435500       0.20153000       0.13618900
    22  O          0.07564500       0.20153000       0.36381100
    23  O          0.42435500       0.70153000       0.13618900
    24  O          0.57564500       0.70153000       0.36381100
    25  C          0.13933700       0.13134000       0.93537890
    26  C          0.86066300       0.13134000       0.56462110
    27  C          0.63933700       0.63134000       0.93537890
    28  C          0.36066300       0.63134000       0.56462110
    29  C          0.86066300       0.86866000       0.06462110
    30  C          0.13933700       0.86866000       0.43537890
    31  C          0.36066300       0.36866000       0.06462110
    32  C          0.63933700       0.36866000       0.43537890
    33  C          0.11355700       0.91556000       0.87576890
    34  C          0.88644300       0.91556000       0.62423110
    35  C          0.61355700       0.41556000       0.87576890
    36  C          0.38644300       0.41556000       0.62423110
    37  C          0.88644300       0.08444000       0.12423110
    38  C          0.11355700       0.08444000       0.37576890
    39  C          0.38644300       0.58444000       0.12423110
    40  C          0.61355700       0.58444000       0.37576890
    41  O          0.20421600       0.76183000       0.17171900
    42  O          0.79578400       0.76183000       0.32828100
    43  O          0.70421600       0.26183000       0.17171900
    44  O          0.29578400       0.26183000       0.32828100
    45  O          0.79578400       0.23817000       0.82828100
    46  O          0.20421600       0.23817000       0.67171900
    47  O          0.29578400       0.73817000       0.82828100
    48  O          0.70421600       0.73817000       0.67171900
    49  C          0.20445700       0.46614000      -0.00076110
    50  C          0.79554300       0.46614000       0.50076110
    51  C          0.70445700       0.96614000      -0.00076110
    52  C          0.29554300       0.96614000       0.50076110
    53  C          0.79554300       0.53386000       0.00076110
    54  C          0.20445700       0.53386000       0.49923890
    55  C          0.29554300       0.03386000       0.00076110
    56  C          0.70445700       0.03386000       0.49923890
    57  H          0.23030000       0.56660000       0.00210000
    58  H          0.76970000       0.56660000       0.49790000
    59  H          0.73030000       0.06660000       0.00210000
    60  H          0.26970000       0.06660000       0.49790000
    61  H          0.76970000       0.43340000      -0.00210000
    62  H          0.23030000       0.43340000       0.50210000
    63  H          0.26970000       0.93340000      -0.00210000
    64  H          0.73030000       0.93340000       0.50210000
    65  C          0.17801800       0.28134000       0.94016880
    66  C          0.82198200       0.28134000       0.55983120
    67  C          0.67801800       0.78134000       0.94016880
    68  C          0.32198200       0.78134000       0.55983120
    69  C          0.82198200       0.71866000       0.05983120
    70  C          0.17801800       0.71866000       0.44016880
    71  C          0.32198200       0.21866000       0.05983120
    72  C          0.67801800       0.21866000       0.44016880
    73  H          0.18610000       0.25680000       0.90320000
    74  H          0.81390000       0.25680000       0.59680000
    75  H          0.68610000       0.75680000       0.90320000
    76  H          0.31390000       0.75680000       0.59680000
    77  H          0.81390000       0.74320000       0.09680000
    78  H          0.18610000       0.74320000       0.40320000
    79  H          0.31390000       0.24320000       0.09680000
    80  H          0.68610000       0.24320000       0.40320000
    81  O          0.24577600       0.93143000       0.10689800
    82  O          0.75422400       0.93143000       0.39310200
    83  O          0.74577600       0.43143000       0.10689800
    84  O          0.25422400       0.43143000       0.39310200
    85  O          0.75422400       0.06857000       0.89310200
    86  O          0.24577600       0.06857000       0.60689800
    87  O          0.25422400       0.56857000       0.89310200
    88  O          0.74577600       0.56857000       0.60689800
    89  C          0.19237700       0.50164000       0.05456110
    90  C          0.80762300       0.50164000       0.44543890
    91  C          0.69237700       0.00164000       0.05456110
    92  C          0.30762300       0.00164000       0.44543890
    93  C          0.80762300       0.49836000       0.94543890
    94  C          0.19237700       0.49836000       0.55456110
    95  C          0.30762300      -0.00164000       0.94543890
    96  C          0.69237700      -0.00164000       0.55456110
    97  C          0.12612800       0.17694000       0.98888880
    98  C          0.87387200       0.17694000       0.51111120
    99  C          0.62612800       0.67694000       0.98888880
   100  C          0.37387200       0.67694000       0.51111120
   101  C          0.87387200       0.82306000       0.01111120
   102  C          0.12612800       0.82306000       0.48888880
   103  C          0.37387200       0.32306000       0.01111120
   104  C          0.62612800       0.32306000       0.48888880
   105  H          0.09910000       0.08280000       0.98430000
   106  H          0.90090000       0.08280000       0.51570000
   107  H          0.59910000       0.58280000       0.98430000
   108  H          0.40090000       0.58280000       0.51570000
   109  H          0.90090000       0.91720000       0.01570000
   110  H          0.09910000       0.91720000       0.48430000
   111  H          0.40090000       0.41720000       0.01570000
   112  H          0.59910000       0.41720000       0.48430000
   113  N          0.28415700       0.57204000       0.20000110
   114  N          0.71584300       0.57204000       0.29999890
   115  N          0.78415700       0.07204000       0.20000110
   116  N          0.21584300       0.07204000       0.29999890
   117  N          0.71584300       0.42796000       0.79999890
   118  N          0.28415700       0.42796000       0.70000110
   119  N          0.21584300       0.92796000       0.79999890
   120  N          0.78415700       0.92796000       0.70000110
   121  C          0.15268800       0.36044000       0.04892120
   122  C          0.84731200       0.36044000       0.45107880
   123  C          0.65268800       0.86044000       0.04892120
   124  C          0.34731200       0.86044000       0.45107880
   125  C          0.84731200       0.63956000       0.95107880
   126  C          0.15268800       0.63956000       0.54892120
   127  C          0.34731200       0.13956000       0.95107880
   128  C          0.65268800       0.13956000       0.54892120
   129  H          0.14390000       0.38850000       0.08510000
   130  H          0.85610000       0.38850000       0.41490000
   131  H          0.64390000       0.88850000       0.08510000
   132  H          0.35610000       0.88850000       0.41490000
   133  H          0.85610000       0.61150000       0.91490000
   134  H          0.14390000       0.61150000       0.58510000
   135  H          0.35610000       0.11150000       0.91490000
   136  H          0.64390000       0.11150000       0.58510000
   137  H          0.30361000       0.54350000       0.18411600
   138  H          0.69639000       0.54350000       0.31588400
   139  H          0.80361000       0.04350000       0.18411600
   140  H          0.19639000       0.04350000       0.31588400
   141  H          0.69639000       0.45650000       0.81588400
   142  H          0.30361000       0.45650000       0.68411600
   143  H          0.19639000       0.95650000       0.81588400
   144  H          0.80361000       0.95650000       0.68411600
   145  H          0.28139000       0.45760000       0.22801500
   146  H          0.71861000       0.45760000       0.27198500
   147  H          0.78139000       0.95760000       0.22801500
   148  H          0.21861000       0.95760000       0.27198500
   149  H          0.71861000       0.54240000       0.77198500
   150  H          0.28139000       0.54240000       0.72801500
   151  H          0.21861000       0.04240000       0.77198500
   152  H          0.78139000       0.04240000       0.72801500
   153  H          0.11761200       0.69930000       0.79928100
   154  H          0.88238800       0.69930000       0.70071900
   155  H          0.61761200       0.19930000       0.79928100
   156  H          0.38238800       0.19930000       0.70071900
   157  H          0.88238800       0.30070000       0.20071900
   158  H          0.11761200       0.30070000       0.29928100
   159  H          0.38238800       0.80070000       0.20071900
   160  H          0.61761200       0.80070000       0.29928100
   161  N          0.09443600       0.53953000       0.24272900
   162  N          0.90556400       0.53953000       0.25727100
   163  N          0.59443600       0.03953000       0.24272900
   164  N          0.40556400       0.03953000       0.25727100
   165  N          0.90556400       0.46047000       0.75727100
   166  N          0.09443600       0.46047000       0.74272900
   167  N          0.40556400       0.96047000       0.75727100
   168  N          0.59443600       0.96047000       0.74272900
   169  O          0.04744600       0.24473000       0.04493900
   170  O          0.95255400       0.24473000       0.45506100
   171  O          0.54744600       0.74473000       0.04493900
   172  O          0.45255400       0.74473000       0.45506100
   173  O          0.95255400       0.75527000       0.95506100
   174  O          0.04744600       0.75527000       0.54493900
   175  O          0.45255400       0.25527000       0.95506100
   176  O          0.54744600       0.25527000       0.54493900
   177  N          0.98479300       0.30304000       0.06537110
   178  N          0.01520700       0.30304000       0.43462890
   179  N          0.48479300       0.80304000       0.06537110
   180  N          0.51520700       0.80304000       0.43462890
   181  N          0.01520700       0.69696000       0.93462890
   182  N          0.98479300       0.69696000       0.56537110
   183  N          0.51520700       0.19696000       0.93462890
   184  N          0.48479300       0.19696000       0.56537110
   185  C          0.04864700       0.95654000       0.13688110
   186  C          0.95135300       0.95654000       0.36311890
   187  C          0.54864700       0.45654000       0.13688110
   188  C          0.45135300       0.45654000       0.36311890
   189  C          0.95135300       0.04346000       0.86311890
   190  C          0.04864700       0.04346000       0.63688110
   191  C          0.45135300       0.54346000       0.86311890
   192  C          0.54864700       0.54346000       0.63688110
   193  C          0.02628700       0.18084000       0.07818110
   194  C          0.97371300       0.18084000       0.42181890
   195  C          0.52628700       0.68084000       0.07818110
   196  C          0.47371300       0.68084000       0.42181890
   197  C          0.97371300       0.81916000       0.92181890
   198  C          0.02628700       0.81916000       0.57818110
   199  C          0.47371300       0.31916000       0.92181890
   200  C          0.52628700       0.31916000       0.57818110
   201  C          0.09232800       0.83224000       0.15029120
   202  C          0.90767200       0.83224000       0.34970880
   203  C          0.59232800       0.33224000       0.15029120
   204  C          0.40767200       0.33224000       0.34970880
   205  C          0.90767200       0.16776000       0.84970880
   206  C          0.09232800       0.16776000       0.65029120
   207  C          0.40767200       0.66776000       0.84970880
   208  C          0.59232800       0.66776000       0.65029120
   209  H          0.10700000       0.88760000       0.12370000
   210  H          0.89300000       0.88760000       0.37630000
   211  H          0.60700000       0.38760000       0.12370000
   212  H          0.39300000       0.38760000       0.37630000
   213  H          0.89300000       0.11240000       0.87630000
   214  H          0.10700000       0.11240000       0.62370000
   215  H          0.39300000       0.61240000       0.87630000
   216  H          0.60700000       0.61240000       0.62370000
   217  C          0.05275800       0.66104000       0.23063120
   218  C          0.94724200       0.66104000       0.26936880
   219  C          0.55275800       0.16104000       0.23063120
   220  C          0.44724200       0.16104000       0.26936880
   221  C          0.94724200       0.33896000       0.76936880
   222  C          0.05275800       0.33896000       0.73063120
   223  C          0.44724200       0.83896000       0.76936880
   224  C          0.55275800       0.83896000       0.73063120
   225  H          0.03920000       0.60330000       0.25860000
   226  H          0.96080000       0.60330000       0.24140000
   227  H          0.53920000       0.10330000       0.25860000
   228  H          0.46080000       0.10330000       0.24140000
   229  H          0.96080000       0.39670000       0.74140000
   230  H          0.03920000       0.39670000       0.75860000
   231  H          0.46080000       0.89670000       0.74140000
   232  H          0.53920000       0.89670000       0.75860000
   233  C          0.02886800       0.86764000       0.17876120
   234  C          0.97113200       0.86764000       0.32123880
   235  C          0.52886800       0.36764000       0.17876120
   236  C          0.47113200       0.36764000       0.32123880
   237  C          0.97113200       0.13236000       0.82123880
   238  C          0.02886800       0.13236000       0.67876120
   239  C          0.47113200       0.63236000       0.82123880
   240  C          0.52886800       0.63236000       0.67876120
   241  H         -0.00020000       0.94650000       0.17190000
   242  H          0.00020000       0.94650000       0.32810000
   243  H          0.49980000       0.44650000       0.17190000
   244  H          0.50020000       0.44650000       0.32810000
   245  H          0.00020000       0.05350000       0.82810000
   246  H         -0.00020000       0.05350000       0.67190000
   247  H          0.50020000       0.55350000       0.82810000
   248  H          0.49980000       0.55350000       0.67190000
   249  C          0.11392800       0.62704000       0.20301120
   250  C          0.88607200       0.62704000       0.29698880
   251  C          0.61392800       0.12704000       0.20301120
   252  C          0.38607200       0.12704000       0.29698880
   253  C          0.88607200       0.37296000       0.79698880
   254  C          0.11392800       0.37296000       0.70301120
   255  C          0.38607200       0.87296000       0.79698880
   256  C          0.61392800       0.87296000       0.70301120
   257  H          0.14330000       0.54570000       0.21140000
   258  H          0.85670000       0.54570000       0.28860000
   259  H          0.64330000       0.04570000       0.21140000
   260  H          0.35670000       0.04570000       0.28860000
   261  H          0.85670000       0.45430000       0.78860000
   262  H          0.14330000       0.45430000       0.71140000
   263  H          0.35670000       0.95430000       0.78860000
   264  H          0.64330000       0.95430000       0.71140000
   265  H          0.96869000       0.26450000       0.08921500
   266  H          0.03131000       0.26450000       0.41078500
   267  H          0.46869000       0.76450000       0.08921500
   268  H          0.53131000       0.76450000       0.41078500
   269  H          0.03131000       0.73550000       0.91078500
   270  H          0.96869000       0.73550000       0.58921500
   271  H          0.53131000       0.23550000       0.91078500
   272  H          0.46869000       0.23550000       0.58921500
   273  H          0.97252000       0.42550000       0.03101300
   274  H          0.02748000       0.42550000       0.46898700
   275  H          0.47252000       0.92550000       0.03101300
   276  H          0.52748000       0.92550000       0.46898700
   277  H          0.02748000       0.57450000       0.96898700
   278  H          0.97252000       0.57450000       0.53101300
   279  H          0.52748000       0.07450000       0.96898700
   280  H          0.47252000       0.07450000       0.53101300
