data_FUVWID
_symmetry_space_group_name_H-M    'P1'
_symmetry_Int_Tables_number       1
loop_
_symmetry_equiv_pos_site_id
_symmetry_equiv_pos_as_xyz
1 x,y,z
_cell_length_a                   7.38353
_cell_length_b                   11.84245
_cell_length_c                   13.44327
_cell_angle_alpha                65.5512
_cell_angle_beta                 74.7202
_cell_angle_gamma                86.1374
loop_
_atom_site_label
_atom_site_type_symbol
_atom_site_fract_x
_atom_site_fract_y
_atom_site_fract_z
     1  S          0.85091000       0.91115000       0.37085000
     2  S          0.14909000       0.08885000       0.62915000
     3  O          0.48121000       0.00295000       0.81265000
     4  O          0.51879000      -0.00295000       0.18735000
     5  N          0.78651000       0.27565000       0.46905000
     6  N          0.21349000       0.72435000       0.53095000
     7  N          0.64881000       0.13675000       0.63495000
     8  N          0.35119000       0.86325000       0.36505000
     9  N          0.76801000       0.06645000       0.48665000
    10  N          0.23199000       0.93355000       0.51335000
    11  N          0.72981000       0.33635000       0.54025000
    12  N          0.27019000       0.66365000       0.45975000
    13  C          0.47351000       0.39195000       0.72155000
    14  C          0.52649000       0.60805000       0.27845000
    15  N          0.46481000       0.70935000       0.82505000
    16  N          0.53519000       0.29065000       0.17495000
    17  C          0.57021000       0.28265000       0.73765000
    18  C          0.42979000       0.71735000       0.26235000
    19  C          0.52861000       0.80375000       0.75565000
    20  C          0.47139000       0.19625000       0.24435000
    21  C          0.53831000       0.24745000       0.93015000
    22  C          0.46169000       0.75255000       0.06985000
    23  C          0.07841000       0.52495000       0.21805000
    24  C          0.92159000       0.47505000       0.78195000
    25  C          0.70071000       0.94985000       0.56215000
    26  C          0.29929000       0.05015000       0.43785000
    27  C          0.60561000       0.92345000       0.67405000
    28  C          0.39439000       0.07655000       0.32595000
    29  C          0.89461000       0.34325000       0.35455000
    30  C          0.10539000       0.65675000       0.64545000
    31  C          0.73831000       0.15295000       0.52575000
    32  C          0.26169000       0.84705000       0.47425000
    33  C          0.64691000       0.25215000       0.63965000
    34  C          0.35309000       0.74785000       0.36035000
    35  C          0.60141000       0.21105000       0.84245000
    36  C          0.39859000       0.78895000       0.15755000
    37  C          0.56871000       0.01725000       0.71815000
    38  C          0.43129000       0.98275000       0.28185000
    39  C          0.10351000       0.47885000       0.13665000
    40  C          0.89649000       0.52115000       0.86335000
    41  C          0.44361000       0.35645000       0.91325000
    42  C          0.55639000       0.64355000       0.08675000
    43  C          0.83661000       0.76595000       0.37555000
    44  C          0.16339000       0.23405000       0.62445000
    45  C          0.41191000       0.42715000       0.80985000
    46  C          0.58809000       0.57285000       0.19015000
    47  C          0.91591000       0.29545000       0.27525000
    48  C          0.08409000       0.70455000       0.72475000
    49  C          0.73471000       0.85945000       0.51235000
    50  C          0.26529000       0.14055000       0.48765000
    51  C          0.97671000       0.45865000       0.32625000
    52  C          0.02329000       0.54135000       0.67375000
    53  C          0.02251000       0.36455000       0.16625000
    54  C          0.97749000       0.63545000       0.83375000
    55  C          0.74851000       0.68245000       0.47855000
    56  C          0.25149000       0.31755000       0.52145000
    57  C          0.68901000       0.73385000       0.55835000
    58  C          0.31099000       0.26615000       0.44165000
    59  H          0.45243000       0.44113000       0.64846000
    60  H          0.54757000       0.55887000       0.35154000
    61  H          0.56117000       0.19778000       0.00258000
    62  H          0.43883000       0.80222000      -0.00258000
    63  H          0.13217000       0.60502000       0.19909000
    64  H          0.86783000       0.39498000       0.80091000
    65  H          0.66729000       0.13579000       0.85356000
    66  H          0.33271000       0.86421000       0.14644000
    67  H          0.17644000       0.52694000       0.06098000
    68  H          0.82356000       0.47306000       0.93902000
    69  H          0.39985000       0.38203000       0.97424000
    70  H          0.60015000       0.61797000       0.02576000
    71  H          0.34511000       0.50176000       0.79981000
    72  H          0.65489000       0.49824000       0.20019000
    73  H          0.85685000       0.21579000       0.29741000
    74  H          0.14315000       0.78421000       0.70259000
    75  H          0.96112000       0.49191000       0.38179000
    76  H          0.03888000       0.50809000       0.61821000
    77  H          0.04094000       0.33102000       0.11050000
    78  H          0.95906000       0.66898000       0.88950000
    79  H          0.88877000       0.75190000       0.30849000
    80  H          0.11123000       0.24810000       0.69151000
    81  H          0.73336000       0.59736000       0.49096000
    82  H          0.26664000       0.40264000       0.50904000
    83  H          0.62321000       0.69262000       0.63673000
    84  H          0.37679000       0.30738000       0.36327000
    85  O         -0.01251000       0.06765000       0.88875000
    86  O          0.01251000       0.93235000       0.11125000
    87  C          0.98119000       0.93575000       0.93825000
    88  C          0.01881000       0.06425000       0.06175000
    89  C          0.08041000       0.11815000       0.93965000
    90  C          0.91959000       0.88185000       0.06035000
    91  H          0.89823000       0.90709000       0.90843000
    92  H          0.10177000       0.09291000       0.09157000
    93  H          0.10533000       0.90845000       0.91755000
    94  H          0.89467000       0.09155000       0.08245000
    95  H          0.18277000       0.06331000       0.94690000
    96  H          0.81723000       0.93669000       0.05310000
    97  H          0.12753000       0.20200000       0.91237000
    98  H          0.87247000       0.79800000       0.08763000
