data_FUXJAM
_symmetry_space_group_name_H-M    'P1'
_symmetry_Int_Tables_number       1
loop_
_symmetry_equiv_pos_site_id
_symmetry_equiv_pos_as_xyz
1 x,y,z
_cell_length_a                   6.8652
_cell_length_b                   9.5213
_cell_length_c                   13.1574
_cell_angle_alpha                94.4694
_cell_angle_beta                 94.0434
_cell_angle_gamma                106.9344
loop_
_atom_site_label
_atom_site_type_symbol
_atom_site_fract_x
_atom_site_fract_y
_atom_site_fract_z
     1  C          0.14163000       0.39172000       0.16012150
     2  C          0.85837000       0.60828000       0.83987850
     3  C          0.13953000       0.31832000       0.24765150
     4  C          0.86047000       0.68168000       0.75234850
     5  C          0.18833000       0.39962000       0.34359150
     6  C          0.81167000       0.60038000       0.65640850
     7  C          0.22803000       0.40552000       0.52153150
     8  C          0.77197000       0.59448000       0.47846850
     9  C          0.22223000       0.33082000       0.60860160
    10  C          0.77777000       0.66918000       0.39139840
    11  C          0.26533000       0.41183000       0.70506160
    12  C          0.73467000       0.58817000       0.29493840
    13  C          0.31383000       0.56442000       0.71435150
    14  C          0.68617000       0.43558000       0.28564850
    15  C          0.31983000       0.63882000       0.62620160
    16  C          0.68017000       0.36118000       0.37379840
    17  C          0.27663000       0.55812000       0.53012150
    18  C          0.72337000       0.44188000       0.46987850
    19  C          0.23743000       0.55102000       0.35195150
    20  C          0.76257000       0.44898000       0.64804850
    21  C          0.23753000       0.62432000       0.26505160
    22  C          0.76247000       0.37568000       0.73494840
    23  C          0.19003000       0.54432000       0.16877150
    24  C          0.80997000       0.45568000       0.83122850
    25  Cl         0.07715800       0.12906600       0.23899400
    26  Cl         0.92284200       0.87093400       0.76100600
    27  Cl         0.16325100       0.14268600       0.59407400
    28  Cl         0.83674900       0.85731400       0.40592600
    29  Cl         0.25785900       0.32047700       0.81335400
    30  Cl         0.74214100       0.67952300       0.18664600
    31  Cl         0.36277800       0.66399700       0.83291400
    32  Cl         0.63722200       0.33600300       0.16708600
    33  Cl         0.37792900       0.82729600       0.63267400
    34  Cl         0.62207100       0.17270400       0.36732600
    35  Cl         0.29637900       0.81397600       0.27695400
    36  Cl         0.70362100       0.18602400       0.72304600
    37  O          0.18492000       0.32123150       0.42859110
    38  O          0.81508000       0.67876850       0.57140890
    39  O          0.28542000       0.63630160       0.44651110
    40  O          0.71458000       0.36369840       0.55348890
    41  O          0.09452000       0.31109160       0.06661110
    42  O          0.90548000       0.68890840       0.93338890
    43  H          0.07810000       0.36560000       0.02160000
    44  H          0.92190000       0.63440000       0.97840000
    45  O          0.17942000       0.60580160       0.07881110
    46  O          0.82058000       0.39419840       0.92118890
    47  H          0.27110000       0.68720000       0.08240000
    48  H          0.72890000       0.31280000       0.91760000
    49  C          0.31604000       0.97152000       0.04317190
    50  C          0.68396000       0.02848000       0.95682810
    51  H          0.35930000       0.02660000       0.11200000
    52  H          0.64070000       0.97340000       0.88800000
    53  H          0.16590000       0.92570000       0.03770000
    54  H          0.83410000       0.07430000       0.96230000
    55  C          0.63094000       0.92473000       0.03665190
    56  C          0.36906000       0.07527000       0.96334810
    57  H          0.69810000       0.84640000       0.02640000
    58  H          0.30190000       0.15360000       0.97360000
    59  H          0.68180000       0.97860000       0.10530000
    60  H          0.31820000       0.02140000       0.89470000
    61  O          0.41392000       0.85910150       0.03135110
    62  O          0.58608000       0.14089850       0.96864890
