data_FUYGOX
_symmetry_space_group_name_H-M    'P1'
_symmetry_Int_Tables_number       1
loop_
_symmetry_equiv_pos_site_id
_symmetry_equiv_pos_as_xyz
1 x,y,z
_cell_length_a                   6.61831
_cell_length_b                   30.0675
_cell_length_c                   10.009316
_cell_angle_alpha                90.0
_cell_angle_beta                 93.562
_cell_angle_gamma                90.0
loop_
_atom_site_label
_atom_site_type_symbol
_atom_site_fract_x
_atom_site_fract_y
_atom_site_fract_z
     1  I          0.85853200       0.65015650       0.41044916
     2  I          0.64146800       0.15015650       0.08955084
     3  I          0.14146800       0.34984350       0.58955084
     4  I          0.35853200       0.84984350       0.91044916
     5  F          0.28453000       0.68722600       0.33375170
     6  F          0.21547000       0.18722600       0.16624830
     7  F          0.71547000       0.31277400       0.66624830
     8  F          0.78453000       0.81277400       0.83375170
     9  F          0.81992000       0.71848600       0.65705180
    10  F          0.68008000       0.21848600       0.84294820
    11  F          0.18008000       0.28151400       0.34294820
    12  F          0.31992000       0.78151400       0.15705180
    13  C          0.04644000       0.70090800       0.49332000
    14  C          0.45356000       0.20090800       0.00668000
    15  C          0.95356000       0.29909200       0.50668000
    16  C          0.54644000       0.79909200      -0.00668000
    17  C          0.23024000       0.71076800       0.44173000
    18  C          0.26976000       0.21076800       0.05827000
    19  C          0.76976000       0.28923200       0.55827000
    20  C          0.73024000       0.78923200       0.94173000
    21  C          0.36134000       0.74302900       0.49363000
    22  C          0.13866000       0.24302900       0.00637000
    23  C          0.63866000       0.25697100       0.50637000
    24  C          0.86134000       0.75697100      -0.00637000
    25  H          0.48690000       0.74840000       0.45540000
    26  H          0.01310000       0.24840000       0.04460000
    27  H          0.51310000       0.25160000       0.54460000
    28  H         -0.01310000       0.75160000       0.95540000
    29  C          0.30544000       0.76718900       0.60203000
    30  C          0.19456000       0.26718900       0.89797000
    31  C          0.69456000       0.23281100       0.39797000
    32  C          0.80544000       0.73281100       0.10203000
    33  H          0.39370000       0.78940000       0.63960000
    34  H          0.10630000       0.28940000       0.86040000
    35  H          0.60630000       0.21060000       0.36040000
    36  H          0.89370000       0.71060000       0.13960000
    37  C          0.12154000       0.75938900       0.65693000
    38  C          0.37846000       0.25938900       0.84307000
    39  C          0.87846000       0.24061100       0.34307000
    40  C          0.62154000       0.74061100       0.15693000
    41  H          0.08150000       0.77650000       0.73050000
    42  H          0.41850000       0.27650000       0.76950000
    43  H          0.91850000       0.22350000       0.26950000
    44  H          0.58150000       0.72350000       0.23050000
    45  C         -0.00186000       0.72644900       0.60273000
    46  C          0.50186000       0.22644900       0.89727000
    47  C          0.00186000       0.27355100       0.39727000
    48  C          0.49814000       0.77355100       0.10273000
    49  I          0.12327200       0.44494050       0.17928217
    50  I          0.37672800       0.94494050       0.32071783
    51  I          0.87672800       0.55505950       0.82071783
    52  I          0.62327200       0.05505950       0.67928217
    53  F          0.78637000       0.41227600       0.36878160
    54  F          0.71363000       0.91227600       0.13121840
    55  F          0.21363000       0.58772400       0.63121840
    56  F          0.28637000       0.08772400       0.86878160
    57  F          0.02833000       0.36889600       0.95798820
    58  F          0.47167000       0.86889600       0.54201180
    59  F          0.97167000       0.63110400       0.04201180
    60  F          0.52833000       0.13110400       0.45798820
    61  C          0.91476000       0.39188800       0.16443000
    62  C          0.58524000       0.89188800       0.33557000
    63  C          0.08524000       0.60811200       0.83557000
    64  C          0.41476000       0.10811200       0.66443000
    65  C          0.77646000       0.38518900       0.26063000
    66  C          0.72354000       0.88518900       0.23937000
    67  C          0.22354000       0.61481100       0.73937000
    68  C          0.27646000       0.11481100       0.76063000
    69  C          0.63086000       0.35279100       0.25143000
    70  C          0.86914000       0.85279100       0.24857000
    71  C          0.36914000       0.64720900       0.74857000
    72  C          0.13086000       0.14720900       0.75143000
    73  H          0.53840000       0.34940000       0.31960000
    74  H          0.96160000       0.84940000       0.18040000
    75  H          0.46160000       0.65060000       0.68040000
    76  H          0.03840000       0.15060000       0.81960000
    77  C          0.62086000       0.32501100       0.14033000
    78  C          0.87914000       0.82501100       0.35967000
    79  C          0.37914000       0.67498900       0.85967000
    80  C          0.12086000       0.17498900       0.64033000
    81  H          0.52080000       0.30240000       0.13200000
    82  H         -0.02080000       0.80240000       0.36800000
    83  H          0.47920000       0.69760000       0.86800000
    84  H          0.02080000       0.19760000       0.63200000
    85  C          0.75606000       0.33020900       0.04183000
    86  C          0.74394000       0.83020900       0.45817000
    87  C          0.24394000       0.66979100       0.95817000
    88  C          0.25606000       0.16979100       0.54183000
    89  H          0.75060000       0.31130000       0.96570000
    90  H          0.74940000       0.81130000       0.53430000
    91  H          0.24940000       0.68870000       0.03430000
    92  H          0.25060000       0.18870000       0.46570000
    93  C          0.89886000       0.36332800       0.05613000
    94  C          0.60114000       0.86332800       0.44387000
    95  C          0.10114000       0.63667200       0.94387000
    96  C          0.39886000       0.13667200       0.55613000
    97  N          0.61983000       0.58377700       0.30122000
    98  N          0.88017000       0.08377700       0.19878000
    99  N          0.38017000       0.41622300       0.69878000
   100  N          0.11983000       0.91622300       0.80122000
   101  N          0.38393000       0.51991700       0.22392000
   102  N          0.11607000       0.01991700       0.27608000
   103  N          0.61607000       0.48008300       0.77608000
   104  N          0.88393000       0.98008300       0.72392000
   105  C          0.47374000       0.57466900       0.40232000
   106  C          0.02626000       0.07466900       0.09768000
   107  C          0.52626000       0.42533100       0.59768000
   108  C          0.97374000       0.92533100       0.90232000
   109  H          0.39290000       0.60170000       0.41730000
   110  H          0.10710000       0.10170000       0.08270000
   111  H          0.60710000       0.39830000       0.58270000
   112  H          0.89290000       0.89830000       0.91730000
   113  H          0.54690000       0.56650000       0.48810000
   114  H          0.95310000       0.06650000       0.01190000
   115  H          0.45310000       0.43350000       0.51190000
   116  H          0.04690000       0.93350000      -0.01190000
   117  C          0.33234000       0.53638100       0.35503000
   118  C          0.16766000       0.03638100       0.14497000
   119  C          0.66766000       0.46361900       0.64497000
   120  C          0.83234000       0.96361900       0.85503000
   121  H          0.34370000       0.51180000       0.42090000
   122  H          0.15630000       0.01180000       0.07910000
   123  H          0.65630000       0.48820000       0.57910000
   124  H          0.84370000       0.98820000       0.92090000
   125  H          0.19040000       0.54700000       0.34950000
   126  H          0.30960000       0.04700000       0.15050000
   127  H          0.80960000       0.45300000       0.65050000
   128  H          0.69040000       0.95300000       0.84950000
   129  C          0.59525000       0.50474120       0.23695000
   130  C          0.90475000       0.00474120       0.26305000
   131  C          0.40475000       0.49525880       0.76305000
   132  C          0.09525000       0.99525880       0.73695000
   133  H          0.63400000       0.49270000       0.15000000
   134  H          0.86600000       0.99270000       0.35000000
   135  H          0.36600000       0.50730000       0.85000000
   136  H          0.13400000       0.00730000       0.65000000
   137  H          0.60860000       0.48060000       0.30400000
   138  H          0.89140000       0.98060000       0.19600000
   139  H          0.39140000       0.51940000       0.69600000
   140  H          0.10860000       0.01940000       0.80400000
   141  C          0.73814000       0.54326900       0.28023000
   142  C          0.76186000       0.04326900       0.21977000
   143  C          0.26186000       0.45673100       0.71977000
   144  C          0.23814000       0.95673100       0.78023000
   145  H          0.81660000       0.53520000       0.36420000
   146  H          0.68340000       0.03520000       0.13580000
   147  H          0.18340000       0.46480000       0.63580000
   148  H          0.31660000       0.96480000       0.86420000
   149  H          0.83460000       0.54870000       0.21030000
   150  H          0.66540000       0.04870000       0.28970000
   151  H          0.16540000       0.45130000       0.78970000
   152  H          0.33460000       0.95130000       0.71030000
   153  C          0.50634000       0.59577900       0.17533000
   154  C         -0.00634000       0.09577900       0.32467000
   155  C          0.49366000       0.40422100       0.82467000
   156  C          0.00634000       0.90422100       0.67533000
   157  H          0.60180000       0.60210000       0.10540000
   158  H          0.89820000       0.10210000       0.39460000
   159  H          0.39820000       0.39790000       0.89460000
   160  H          0.10180000       0.89790000       0.60540000
   161  H          0.42530000       0.62290000       0.18880000
   162  H          0.07470000       0.12290000       0.31120000
   163  H          0.57470000       0.37710000       0.81120000
   164  H          0.92530000       0.87710000       0.68880000
   165  C          0.36486000       0.55700110       0.12973000
   166  C          0.13514000       0.05700110       0.37027000
   167  C          0.63514000       0.44299890       0.87027000
   168  C          0.86486000       0.94299890       0.62973000
   169  H          0.22290000       0.56760000       0.12300000
   170  H          0.27710000       0.06760000       0.37700000
   171  H          0.77710000       0.43240000       0.87700000
   172  H          0.72290000       0.93240000       0.62300000
   173  H          0.39930000       0.54680000       0.03990000
   174  H          0.10070000       0.04680000       0.46010000
   175  H          0.60070000       0.45320000       0.96010000
   176  H          0.89930000       0.95320000       0.53990000
