data_FUZHIT
_symmetry_space_group_name_H-M    'P1'
_symmetry_Int_Tables_number       1
loop_
_symmetry_equiv_pos_site_id
_symmetry_equiv_pos_as_xyz
1 x,y,z
_cell_length_a                   7.20042
_cell_length_b                   9.79893
_cell_length_c                   15.67685
_cell_angle_alpha                86.3242
_cell_angle_beta                 88.2342
_cell_angle_gamma                66.7202
loop_
_atom_site_label
_atom_site_type_symbol
_atom_site_fract_x
_atom_site_fract_y
_atom_site_fract_z
     1  C          0.89833000       0.78287000       0.62357150
     2  C          0.10167000       0.21713000       0.37642850
     3  H          0.96940000       0.67910000       0.63580000
     4  H          0.03060000       0.32090000       0.36420000
     5  C          0.80953000       0.86857000       0.68762140
     6  C          0.19047000       0.13143000       0.31237860
     7  H          0.81440000       0.82620000       0.74420000
     8  H          0.18560000       0.17380000       0.25580000
     9  C          0.89093000       0.84218000       0.53387140
    10  C          0.10907000       0.15782000       0.46612860
    11  C          0.70383000       0.02943000       0.66990130
    12  C          0.29617000       0.97057000       0.33009870
    13  C          0.75563000      -0.00292000       0.51278130
    14  C          0.24437000       0.00292000       0.48721870
    15  C          0.64793000       0.08652000       0.57960130
    16  C          0.35207000       0.91348000       0.42039870
    17  C          0.49653000       0.22912000       0.56382130
    18  C          0.50347000       0.77088000       0.43617870
    19  C          0.34923000       0.31542000       0.63133130
    20  C          0.65077000       0.68458000       0.36866870
    21  H          0.35480000       0.24850000       0.68130000
    22  H          0.64520000       0.75150000       0.31870000
    23  H          0.21200000       0.35730000       0.60810000
    24  H          0.78800000       0.64270000       0.39190000
    25  H          0.38560000       0.39610000       0.64820000
    26  H          0.61440000       0.60390000       0.35180000
    27  C          0.72573000       0.05882000       0.42544130
    28  C          0.27427000       0.94118000       0.57455870
    29  C          0.82583000       0.97938000       0.35402140
    30  C          0.17417000       0.02062000       0.64597860
    31  H          0.91570000       0.87800000       0.36180000
    32  H          0.08430000       0.12200000       0.63820000
    33  C          0.46963000       0.29272000       0.47936130
    34  C          0.53037000       0.70728000       0.52063870
    35  C          0.58623000       0.20992000       0.41073130
    36  C          0.41377000       0.79008000       0.58926870
    37  C          0.79423000       0.04803000       0.27335140
    38  C          0.20577000       0.95197000       0.72664860
    39  H          0.86410000      -0.00780000       0.22650000
    40  H          0.13590000       0.00780000       0.77350000
    41  C          0.32953000       0.44153000       0.45992140
    42  C          0.67047000       0.55847000       0.54007860
    43  H          0.24760000       0.49840000       0.50410000
    44  H          0.75240000       0.50160000       0.49590000
    45  C          0.55713000       0.27852000       0.32520130
    46  C          0.44287000       0.72148000       0.67479870
    47  C          0.66373000       0.19613000       0.25771140
    48  C          0.33627000       0.80387000       0.74228860
    49  H          0.64760000       0.24040000       0.20130000
    50  H          0.35240000       0.75960000       0.79870000
    51  C          0.31253000       0.50162000       0.37974140
    52  C          0.68747000       0.49838000       0.62025860
    53  H          0.21980000       0.60160000       0.36910000
    54  H          0.78020000       0.39840000       0.63090000
    55  C          0.37883000       0.50243000       0.22718130
    56  C          0.62117000       0.49757000       0.77281870
    57  H          0.50230000       0.46350000       0.19140000
    58  H          0.49770000       0.53650000       0.80860000
    59  H          0.34340000       0.61000000       0.23250000
    60  H          0.65660000       0.39000000       0.76750000
    61  C          0.20773000       0.48242000       0.18302130
    62  C          0.79227000       0.51758000       0.81697870
    63  C          0.24323000       0.37252000       0.12561130
    64  C          0.75677000       0.62748000       0.87438870
    65  H          0.37850000       0.30820000       0.11320000
    66  H          0.62150000       0.69180000       0.88680000
    67  C          0.00783000       0.57693000       0.19914140
    68  C         -0.00783000       0.42307000       0.80085860
    69  H          0.98030000       0.65330000       0.23790000
    70  H          0.01970000       0.34670000       0.76210000
    71  C          0.08513000       0.35452000       0.08604130
    72  C          0.91487000       0.64548000       0.91395870
    73  H          0.11230000       0.27810000       0.04730000
    74  H          0.88770000       0.72190000       0.95270000
    75  C          0.84887000       0.56093000       0.15960140
    76  C          0.15113000       0.43907000       0.84039860
    77  H          0.71370000       0.62670000       0.17090000
    78  H          0.28630000       0.37330000       0.82910000
    79  C          0.88707000       0.44872000       0.10332130
    80  C          0.11293000       0.55128000       0.89667870
    81  C          0.75716000       0.32273000       0.01107140
    82  C          0.24284000       0.67727000       0.98892860
    83  H          0.83980000       0.33390000       0.96250000
    84  H          0.16020000       0.66610000       0.03750000
    85  H          0.62780000       0.32720000       0.99030000
    86  H          0.37220000       0.67280000       0.00970000
    87  H          0.82850000       0.22650000       0.04200000
    88  H          0.17150000       0.77350000       0.95800000
    89  N          0.42193000       0.42602000       0.31274110
    90  N          0.57807000       0.57398000       0.68725890
    91  O         -0.00268000       0.75482830       0.48174100
    92  O          0.00268000       0.24517170       0.51825900
    93  O          0.67312000       0.11489180       0.72820900
    94  O          0.32688000       0.88510820       0.27179100
    95  O          0.72098000       0.44046180       0.06749900
    96  O          0.27902000       0.55953820       0.93250100
    97  C          0.35473000       0.97658000       0.05333130
    98  C          0.64527000       0.02342000       0.94666870
    99  C          0.31443000       0.01612000       0.96596870
   100  C          0.68557000       0.98388000       0.03403130
   101  C          0.53933000       0.96108000       0.08661130
   102  C          0.46067000       0.03892000       0.91338870
   103  O          0.20612000       0.95602810       0.10269900
   104  O          0.79388000       0.04397190       0.89730100
