data_GADCUN
_symmetry_space_group_name_H-M    'P1'
_symmetry_Int_Tables_number       1
loop_
_symmetry_equiv_pos_site_id
_symmetry_equiv_pos_as_xyz
1 x,y,z
_cell_length_a                   12.66604
_cell_length_b                   10.32783
_cell_length_c                   17.54815
_cell_angle_alpha                90.0
_cell_angle_beta                 91.6243
_cell_angle_gamma                90.0
loop_
_atom_site_label
_atom_site_type_symbol
_atom_site_fract_x
_atom_site_fract_y
_atom_site_fract_z
     1  S          0.61792400       0.38550500       0.29845300
     2  S          0.88207600       0.88550500       0.20154700
     3  S          0.38207600       0.61449500       0.70154700
     4  S          0.11792400       0.11449500       0.79845300
     5  O          0.60228120       0.49893160       0.34734900
     6  O          0.89771880      -0.00106840       0.15265100
     7  O          0.39771880       0.50106840       0.65265100
     8  O          0.10228120       0.00106840       0.84734900
     9  O          0.73233120       0.35133160       0.30084900
    10  O          0.76766880       0.85133160       0.19915100
    11  O          0.26766880       0.64866840       0.69915100
    12  O          0.23233120       0.14866840       0.80084900
    13  O          0.55674130       0.27463160       0.32533900
    14  O          0.94325870       0.77463160       0.17466100
    15  O          0.44325870       0.72536840       0.67466100
    16  O          0.05674130       0.22536840       0.82533900
    17  O          0.58593130       0.41652170       0.21864900
    18  O          0.91406870       0.91652170       0.28135100
    19  O          0.41406870       0.58347830       0.78135100
    20  O          0.08593130       0.08347830       0.71864900
    21  N          0.58295160      -0.00657190       0.41858110
    22  N          0.91704840       0.49342810       0.08141890
    23  N          0.41704840       0.00657190       0.58141890
    24  N          0.08295160       0.50657190       0.91858110
    25  H          0.53420000       0.94670000       0.42621600
    26  H          0.96580000       0.44670000       0.07378400
    27  H          0.46580000       0.05330000       0.57378400
    28  H          0.03420000       0.55330000       0.92621600
    29  N          0.59304150       0.10943180       0.46223110
    30  N          0.90695850       0.60943180       0.03776890
    31  N          0.40695850       0.89056820       0.53776890
    32  N          0.09304150       0.39056820       0.96223110
    33  H          0.57120000       0.17430000       0.43021600
    34  H          0.92880000       0.67430000       0.06978400
    35  H          0.42880000       0.82570000       0.56978400
    36  H          0.07120000       0.32570000       0.93021600
    37  N          0.74775150       0.01771190       0.36824110
    38  N          0.75224850       0.51771190       0.13175890
    39  N          0.25224850       0.98228810       0.63175890
    40  N          0.24775150       0.48228810       0.86824110
    41  H          0.79620000      -0.01130000       0.34361600
    42  H          0.70380000       0.48870000       0.15638400
    43  H          0.20380000       0.01130000       0.65638400
    44  H          0.29620000       0.51130000       0.84361600
    45  N          0.77045150       0.13070190       0.41235110
    46  N          0.72954850       0.63070190       0.08764890
    47  N          0.22954850       0.86929810       0.58764890
    48  N          0.27045150       0.36929810       0.91235110
    49  H          0.75120000       0.19630000       0.38301600
    50  H          0.74880000       0.69630000       0.11698400
    51  H          0.24880000       0.80370000       0.61698400
    52  H          0.25120000       0.30370000       0.88301600
    53  N          0.64699150       0.84071810       0.33499110
    54  N          0.85300850       0.34071810       0.16500890
    55  N          0.35300850       0.15928190       0.66500890
    56  N          0.14699150       0.65928190       0.83499110
    57  H          0.70049000       0.80310800       0.31295300
    58  H          0.79951000       0.30310800       0.18704700
    59  H          0.29951000       0.19689200       0.68704700
    60  H          0.20049000       0.69689200       0.81295300
    61  N          0.54406170       0.78698000       0.33182130
    62  N          0.95593830       0.28698000       0.16817870
    63  N          0.45593830       0.21302000       0.66817870
    64  N          0.04406170       0.71302000       0.83182130
    65  H          0.54920000       0.69170000       0.33411600
    66  H          0.95080000       0.19170000       0.16588400
    67  H          0.45080000       0.30830000       0.66588400
    68  H          0.04920000       0.80830000       0.83411600
    69  H          0.51420000       0.80170000       0.28511800
    70  H          0.98580000       0.30170000       0.21488200
    71  H          0.48580000       0.19830000       0.71488200
    72  H          0.01420000       0.69830000       0.78511800
    73  C          0.65823170       0.95278000       0.37374120
    74  C          0.84176830       0.45278000       0.12625880
    75  C          0.34176830       0.04722000       0.62625880
    76  C          0.15823170       0.54722000       0.87374120
    77  C          0.70568170       0.13522000       0.48111130
    78  C          0.79431830       0.63522000       0.01888870
    79  C          0.29431830       0.86478000       0.51888870
    80  C          0.20568170       0.36478000       0.98111130
    81  C          0.74702000       0.03752000       0.53929140
    82  C          0.75298000       0.53752000       0.96070860
    83  C          0.25298000       0.96248000       0.46070860
    84  C          0.24702000       0.46248000       0.03929140
    85  H          0.69983000       0.03494000       0.58257600
    86  H          0.80017000       0.53494000       0.91742400
    87  H          0.30017000       0.96506000       0.41742400
    88  H          0.19983000       0.46506000       0.08257600
    89  H          0.81801900       0.06293700       0.55717300
    90  H          0.68198100       0.56293700       0.94282700
    91  H          0.18198100       0.93706300       0.44282700
    92  H          0.31801900       0.43706300       0.05717300
    93  H          0.74984400       0.95164300       0.51569100
    94  H          0.75015600       0.45164300       0.98430900
    95  H          0.25015600       0.04835700       0.48430900
    96  H          0.24984400       0.54835700       0.01569100
    97  C          0.71217190       0.27302000       0.51106150
    98  C          0.78782810       0.77302000       0.98893850
    99  C          0.28782810       0.72698000       0.48893850
   100  C          0.21217190       0.22698000       0.01106150
   101  H          0.68868900       0.33320400       0.47087400
   102  H          0.81131100       0.83320400       0.02912600
   103  H          0.31131100       0.66679600       0.52912600
   104  H          0.18868900       0.16679600       0.97087400
   105  H          0.78532400       0.29279100       0.52660900
   106  H          0.71467600       0.79279100       0.97339100
   107  H          0.21467600       0.70720900       0.47339100
   108  H          0.28532400       0.20720900       0.02660900
   109  H          0.66669500       0.28193300       0.55500900
   110  H          0.83330500       0.78193300       0.94499100
   111  H          0.33330500       0.71806700       0.44499100
   112  H          0.16669500       0.21806700       0.05500900
   113  N          0.06543150       0.29208190       0.58323110
   114  N          0.43456850       0.79208190       0.91676890
   115  N          0.93456850       0.70791810       0.41676890
   116  N          0.56543150       0.20791810       0.08323110
   117  H          0.06820000       0.25630000       0.54111700
   118  H          0.43180000       0.75630000       0.95888300
   119  H          0.93180000       0.74370000       0.45888300
   120  H          0.56820000       0.24370000       0.04111700
   121  N          0.96818850       0.29272000       0.62128110
   122  N          0.53181150       0.79272000       0.87871890
   123  N          0.03181150       0.70728000       0.37871890
   124  N          0.46818850       0.20728000       0.12128110
   125  H          0.97280000       0.23530000       0.65391700
   126  H          0.52720000       0.73530000       0.84608300
   127  H          0.02720000       0.76470000       0.34608300
   128  H          0.47280000       0.26470000       0.15391700
   129  N          0.14280150       0.42892000       0.67357110
   130  N          0.35719850       0.92892000       0.82642890
   131  N          0.85719850       0.57108000       0.32642890
   132  N          0.64280150       0.07108000       0.17357110
   133  H          0.18520000       0.48730000       0.67991600
   134  H          0.31480000      -0.01270000       0.82008400
   135  H          0.81480000       0.51270000       0.32008400
   136  H          0.68520000       0.01270000       0.17991600
   137  N          0.04719150       0.44192000       0.71413110
   138  N          0.45280850       0.94192000       0.78586890
   139  N          0.95280850       0.55808000       0.28586890
   140  N          0.54719150       0.05808000       0.21413110
   141  H          0.04820000       0.38130000       0.75061600
   142  H          0.45180000       0.88130000       0.74938400
   143  H          0.95180000       0.61870000       0.24938400
   144  H          0.54820000       0.11870000       0.25061600
   145  N          0.23257140       0.37539180       0.56636110
   146  N          0.26742860       0.87539180       0.93363890
   147  N          0.76742860       0.62460820       0.43363890
   148  N          0.73257140       0.12460820       0.06636110
   149  H          0.28731400       0.42167300       0.58206000
   150  H          0.21268600       0.92167300       0.91794000
   151  H          0.71268600       0.57832700       0.41794000
   152  H          0.78731400       0.07832700       0.08206000
   153  N          0.23080140       0.31073180       0.49689100
   154  N          0.26919860       0.81073180       0.00310900
   155  N          0.76919860       0.68926820       0.50310900
   156  N          0.73080140       0.18926820      -0.00310900
   157  C          0.14600170       0.36322000       0.60814120
   158  C          0.35399830       0.86322000       0.89185880
   159  C          0.85399830       0.63678000       0.39185880
   160  C          0.64600170       0.13678000       0.10814120
   161  C          0.95612820       0.41742000       0.66165130
   162  C          0.54387180       0.91742000       0.83834870
   163  C          0.04387180       0.58258000       0.33834870
   164  C          0.45612820       0.08258000       0.16165130
   165  C          0.85898000       0.40433000       0.71005150
   166  C          0.64102000       0.90433000       0.78994850
   167  C          0.14102000       0.59567000       0.28994850
   168  C          0.35898000       0.09567000       0.21005150
   169  H          0.79590300       0.39638700       0.67675300
   170  H          0.70409700       0.89638700       0.82324700
   171  H          0.20409700       0.60361300       0.32324700
   172  H          0.29590300       0.10361300       0.17675300
   173  H          0.85259100       0.48109600       0.74240000
   174  H          0.64740900       0.98109600       0.75760000
   175  H          0.14740900       0.51890400       0.25760000
   176  H          0.35259100       0.01890400       0.24240000
   177  H          0.86591000       0.32700600       0.74220300
   178  H          0.63409000       0.82700600       0.75779700
   179  H          0.13409000       0.67299400       0.25779700
   180  H          0.36591000       0.17299400       0.24220300
   181  C          0.94478000       0.52713000       0.60465140
   182  C          0.55522000       0.02713000       0.89534860
   183  C          0.05522000       0.47287000       0.39534860
   184  C          0.44478000       0.97287000       0.10465140
   185  H          0.01109800       0.53764300       0.57786400
   186  H          0.48890200       0.03764300       0.92213600
   187  H         -0.01109800       0.46235700       0.42213600
   188  H          0.51109800       0.96235700       0.07786400
   189  H          0.92833700       0.60746000       0.63151600
   190  H          0.57166300       0.10746000       0.86848400
   191  H          0.07166300       0.39254000       0.36848400
   192  H          0.42833700       0.89254000       0.13151600
   193  H          0.88763000       0.50708800       0.56771800
   194  H          0.61237000       0.00708800       0.93228200
   195  H          0.11237000       0.49291200       0.43228200
   196  H          0.38763000      -0.00708800       0.06771800
   197  C          0.31277170       0.32002000       0.45694130
   198  C          0.18722830       0.82002000       0.04305870
   199  C          0.68722830       0.67998000       0.54305870
   200  C          0.81277170       0.17998000       0.95694130
   201  C          0.41220190       0.38912000       0.47927150
   202  C          0.08779810       0.88912000       0.02072850
   203  C          0.58779810       0.61088000       0.52072850
   204  C          0.91220190       0.11088000       0.97927150
   205  H          0.44921100       0.34102900       0.52011100
   206  H          0.05078900       0.84102900       0.97988900
   207  H          0.55078900       0.65897100       0.47988900
   208  H          0.94921100       0.15897100       0.02011100
   209  H          0.39526000       0.47621600       0.49729700
   210  H          0.10474000       0.97621600       0.00270300
   211  H          0.60474000       0.52378400       0.50270300
   212  H          0.89526000       0.02378400      -0.00270300
   213  H          0.45753300       0.39532100       0.43507600
   214  H          0.04246700       0.89532100       0.06492400
   215  H          0.54246700       0.60467900       0.56492400
   216  H          0.95753300       0.10467900       0.93507600
   217  C          0.30742000       0.25843000       0.37976140
   218  C          0.19258000       0.75843000       0.12023860
   219  C          0.69258000       0.74157000       0.62023860
   220  C          0.80742000       0.24157000       0.87976140
   221  H          0.23911600       0.21497000       0.37226400
   222  H          0.26088400       0.71497000       0.12773600
   223  H          0.76088400       0.78503000       0.62773600
   224  H          0.73911600       0.28503000       0.87226400
   225  H          0.36443100       0.19478300       0.37588600
   226  H          0.13556900       0.69478300       0.12411400
   227  H          0.63556900       0.80521700       0.62411400
   228  H          0.86443100       0.30521700       0.87588600
   229  H          0.31520500       0.32506300       0.34058000
   230  H          0.18479500       0.82506300       0.15942000
   231  H          0.68479500       0.67493700       0.65942000
   232  H          0.81520500       0.17493700       0.84058000
   233  O         -0.00361130       0.12238170       0.45954100
   234  O          0.50361130       0.62238170       0.04045900
   235  O          0.00361130       0.87761830       0.54045900
   236  O          0.49638870       0.37761830       0.95954100
   237  O          0.42982000       0.61183000       0.19504140
   238  O          0.07018000       0.11183000       0.30495860
   239  O          0.57018000       0.38817000       0.80495860
   240  O          0.92982000       0.88817000       0.69504140
   241  H          0.47330000       0.54830000       0.20130000
   242  H          0.02670000       0.04830000       0.29870000
   243  H          0.52670000       0.45170000       0.79870000
   244  H          0.97330000       0.95170000       0.70130000
   245  H          0.39830000       0.63950000       0.23571600
   246  H          0.10170000       0.13950000       0.26428400
   247  H          0.60170000       0.36050000       0.76428400
   248  H          0.89830000       0.86050000       0.73571600
