data_GADGUN17
_symmetry_space_group_name_H-M    'P1'
_symmetry_Int_Tables_number       1
loop_
_symmetry_equiv_pos_site_id
_symmetry_equiv_pos_as_xyz
1 x,y,z
_cell_length_a                   7.029003
_cell_length_b                   8.008506
_cell_length_c                   12.080506
_cell_angle_alpha                101.1101
_cell_angle_beta                 114.2327
_cell_angle_gamma                104.2038
loop_
_atom_site_label
_atom_site_type_symbol
_atom_site_fract_x
_atom_site_fract_y
_atom_site_fract_z
     1  Cl         0.10788000       0.95401800       0.14636000
     2  Cl         0.89212000       0.04598200       0.85364000
     3  Cl         0.67102000       0.68561800       0.90884000
     4  Cl         0.32898000       0.31438200       0.09116000
     5  Cl         0.50262000       0.27431600       0.87324000
     6  Cl         0.49738000       0.72568400       0.12676000
     7  Cl         0.75671000       0.14051900       0.09516000
     8  Cl         0.24329000       0.85948100       0.90484000
     9  Cl         0.21928000       0.41441700       0.33216000
    10  Cl         0.78072000       0.58558300       0.66784000
    11  O          0.31720000       0.78730000       0.33441400
    12  O          0.68280000       0.21270000       0.66558600
    13  C          0.13920000       0.67430000       0.23321400
    14  C          0.86080000       0.32570000       0.76678600
    15  C          0.01120000       0.72830000       0.13361300
    16  C         -0.01120000       0.27170000       0.86638700
    17  C          0.81680000       0.60730000       0.02601400
    18  C          0.18320000       0.39270000       0.97398600
    19  C          0.74080000       0.42720000       0.01271400
    20  C          0.25920000       0.57280000      -0.01271400
    21  C          0.85980000       0.36730000       0.10741300
    22  C          0.14020000       0.63270000       0.89258700
    23  C          0.06020000       0.49030000       0.21741400
    24  C          0.93980000       0.50970000       0.78258600
    25  H          0.47170000       0.78140000       0.38050000
    26  H          0.52830000       0.21860000       0.61950000
    27  N          0.68320000       0.77020000       0.44371200
    28  N          0.31680000       0.22980000       0.55628800
    29  C          0.82830000       0.90220000       0.55781500
    30  C          0.17170000       0.09780000       0.44218500
    31  C          0.04330000       0.92220000       0.62331300
    32  C          0.95670000       0.07780000       0.37668700
    33  C          0.12520000       0.80161900       0.57301300
    34  C          0.87480000       0.19838100       0.42698700
    35  C         -0.02170000       0.66720000       0.45611500
    36  C          0.02170000       0.33280000       0.54388500
    37  C          0.75930000       0.65420000       0.39431200
    38  C          0.24070000       0.34580000       0.60568800
    39  C          0.36130000       0.82020000       0.64231600
    40  C          0.63870000       0.17980000       0.35768400
    41  H          0.77780000      -0.01480000       0.59240000
    42  H          0.22220000       0.01480000       0.40760000
    43  H          0.13750000       0.01480000       0.70180000
    44  H          0.86250000      -0.01480000       0.29820000
    45  H          0.02650000       0.58440000       0.42090000
    46  H         -0.02650000       0.41560000       0.57910000
    47  H          0.65950000       0.56210000       0.31620000
    48  H          0.34050000       0.43790000       0.68380000
    49  H          0.45280000       0.94570000       0.69580000
    50  H          0.54720000       0.05430000       0.30420000
    51  H          0.37330000       0.74490000       0.69610000
    52  H          0.62670000       0.25510000       0.30390000
    53  H          0.41150000       0.78160000       0.58240000
    54  H          0.58850000       0.21840000       0.41760000
