data_GADPUX
_symmetry_space_group_name_H-M    'P1'
_symmetry_Int_Tables_number       1
loop_
_symmetry_equiv_pos_site_id
_symmetry_equiv_pos_as_xyz
1 x,y,z
_cell_length_a                   8.81833
_cell_length_b                   9.69994
_cell_length_c                   10.40895
_cell_angle_alpha                86.7872
_cell_angle_beta                 86.3772
_cell_angle_gamma                78.7983
loop_
_atom_site_label
_atom_site_type_symbol
_atom_site_fract_x
_atom_site_fract_y
_atom_site_fract_z
     1  N          0.83942000       0.14602000       0.51202000
     2  C          0.68963000       0.21132000       0.48782000
     3  O          0.60045190       0.13937180       0.44733170
     4  N          0.64152000       0.34792000       0.50692000
     5  C          0.73713000       0.42112000       0.55792000
     6  N          0.67963000       0.55682000       0.57022000
     7  C          0.88603000       0.35293000       0.59962000
     8  N          0.97452000       0.42352000       0.66942000
     9  O          0.93902000       0.55406190       0.67762000
    10  O          0.08512000       0.35642000       0.72802000
    11  C          0.94473000       0.20882000       0.56832000
    12  O          0.07575190       0.13884180       0.58458180
    13  H          0.86970000       0.05820000       0.49010000
    14  H          0.58580000       0.59260000       0.54580000
    15  H          0.73530000       0.61110000       0.60270000
    16  N          0.15772000       0.84572000       0.51442000
    17  C          0.31193000       0.78443000       0.52212000
    18  O          0.40227190       0.85464180       0.56142170
    19  N          0.36122000       0.65082000       0.48882000
    20  C          0.26283000       0.57872000       0.44222000
    21  N          0.32063000       0.44532000       0.42192000
    22  C          0.10633000       0.64622000       0.41722000
    23  N          0.00982000       0.57882000       0.35142000
    24  O          0.05332000       0.45158190       0.32572000
    25  O          0.88348000       0.64342000       0.31572000
    26  C          0.05023000       0.78632000       0.46012000
    27  O          0.91587810       0.85527180       0.45535180
    28  H          0.12640000       0.92900000       0.54660000
    29  H          0.41720000       0.40970000       0.43890000
    30  H          0.26250000       0.39180000       0.39140000
    31  C          0.40243000       0.90933000       0.22822000
    32  C          0.57243000       0.84463000       0.23762000
    33  N          0.62642000       0.86952000       0.36602000
    34  C          0.67403000       0.90444000       0.13353000
    35  C          0.30343000       0.82853000       0.18392000
    36  C          0.14833000       0.88623000       0.16823000
    37  C          0.09003000       0.02443000       0.19773000
    38  C          0.18723000       0.10523000       0.24283000
    39  C          0.34253000       0.04773000       0.25773000
    40  H          0.58600000       0.74080000       0.22800000
    41  H          0.71780000       0.82670000       0.37790000
    42  H          0.55620000       0.84000000       0.43360000
    43  H          0.62150000       0.95970000       0.36980000
    44  H          0.65560000       0.00710000       0.13740000
    45  H          0.64870000       0.87920000       0.04870000
    46  H          0.78320000       0.86550000       0.14750000
    47  H          0.34230000       0.73330000       0.16420000
    48  H          0.08220000       0.83050000       0.13700000
    49  H          0.98390000       0.06360000       0.18720000
    50  H          0.14750000       0.20010000       0.26350000
    51  H          0.40840000       0.10380000       0.28840000
    52  C          0.58793000       0.03653000       0.79322000
    53  C          0.41463000       0.06222000       0.77642000
    54  N          0.37292000       0.17232000       0.67102000
    55  C          0.31673000       0.10643000       0.89753000
    56  C          0.65753000       0.13913000       0.84123000
    57  C          0.81543000       0.11193000       0.86083000
    58  C          0.90463000       0.98107000       0.83313000
    59  C          0.83623000       0.87997000       0.78433000
    60  C          0.67833000       0.90817000       0.76363000
    61  H          0.38820000       0.97270000       0.74960000
    62  H          0.27930000       0.17030000       0.65530000
    63  H          0.43360000       0.15160000       0.60410000
    64  H          0.36760000       0.26120000       0.69520000
    65  H          0.34320000       0.19230000       0.92740000
    66  H          0.33660000       0.03120000       0.96460000
    67  H          0.20690000       0.12420000       0.87860000
    68  H          0.59660000       0.22830000       0.86060000
    69  H          0.86210000       0.18250000       0.89300000
    70  H          0.01210000       0.96150000       0.84770000
    71  H          0.89700000       0.79090000       0.76480000
    72  H          0.63250000       0.83860000       0.72890000
    73  C          0.46763000       0.48843000       0.96433000
    74  C          0.33003000       0.51443000       0.88013000
    75  N          0.37693000       0.45222000       0.75372000
    76  C          0.26175000       0.67154000       0.86254000
    77  C          0.46354000       0.41453000       0.08193000
    78  C          0.59024000       0.38964000       0.15813000
    79  C          0.72194000       0.43994000       0.11874000
    80  C          0.72915000       0.51254000       0.00164000
    81  C          0.60154000       0.53764000       0.92543000
    82  H          0.24830000       0.46640000       0.92290000
    83  H          0.47220000       0.49260000       0.72190000
    84  H          0.28750000       0.49630000       0.70700000
    85  H          0.34210000       0.72120000       0.82550000
    86  H          0.22300000       0.70920000       0.94630000
    87  H          0.17630000       0.68470000       0.80440000
    88  H          0.37250000       0.38060000       0.11070000
    89  H          0.58610000       0.33740000       0.23780000
    90  H          0.80760000       0.42470000       0.17220000
    91  H          0.82080000       0.54540000       0.97290000
    92  H          0.60630000       0.58930000       0.84540000
