data_GAFGEA
_symmetry_space_group_name_H-M    'P1'
_symmetry_Int_Tables_number       1
loop_
_symmetry_equiv_pos_site_id
_symmetry_equiv_pos_as_xyz
1 x,y,z
_cell_length_a                   25.44084
_cell_length_b                   8.07083
_cell_length_c                   16.77692
_cell_angle_alpha                90.0
_cell_angle_beta                 103.91501
_cell_angle_gamma                90.0
loop_
_atom_site_label
_atom_site_type_symbol
_atom_site_fract_x
_atom_site_fract_y
_atom_site_fract_z
     1  I          0.54573618       0.84506500       0.60396300
     2  I          0.04573618       0.34506500       0.60396300
     3  I          0.45426382       0.84506500       0.89603700
     4  I          0.95426382       0.34506500       0.89603700
     5  I          0.45426382       0.15493500       0.39603700
     6  I          0.95426382       0.65493500       0.39603700
     7  I          0.54573618       0.15493500       0.10396300
     8  I          0.04573618       0.65493500       0.10396300
     9  I          0.58812518       0.84297500       0.78767300
    10  I          0.08812518       0.34297500       0.78767300
    11  I          0.41187482       0.84297500       0.71232700
    12  I          0.91187482       0.34297500       0.71232700
    13  I          0.41187482       0.15702500       0.21232700
    14  I          0.91187482       0.65702500       0.21232700
    15  I          0.58812518       0.15702500       0.28767300
    16  I          0.08812518       0.65702500       0.28767300
    17  I          0.62736200       0.83756400       0.96052300
    18  I          0.12736200       0.33756400       0.96052300
    19  I          0.37263800       0.83756400       0.53947700
    20  I          0.87263800       0.33756400       0.53947700
    21  I          0.37263800       0.16243600       0.03947700
    22  I          0.87263800       0.66243600       0.03947700
    23  I          0.62736200       0.16243600       0.46052300
    24  I          0.12736200       0.66243600       0.46052300
    25  N          0.56353000       0.26618000       0.68863000
    26  N          0.06353000       0.76618000       0.68863000
    27  N          0.43647000       0.26618000       0.81137000
    28  N          0.93647000       0.76618000       0.81137000
    29  N          0.43647000       0.73382000       0.31137000
    30  N          0.93647000       0.23382000       0.31137000
    31  N          0.56353000       0.73382000       0.18863000
    32  N          0.06353000       0.23382000       0.18863000
    33  C          0.53353000       0.33049000       0.60584000
    34  C          0.03353000       0.83049000       0.60584000
    35  C          0.46647000       0.33049000       0.89416000
    36  C          0.96647000       0.83049000       0.89416000
    37  C          0.46647000       0.66951000       0.39416000
    38  C          0.96647000       0.16951000       0.39416000
    39  C          0.53353000       0.66951000       0.10584000
    40  C          0.03353000       0.16951000       0.10584000
    41  N          0.44912000       0.26527000       0.64343000
    42  N          0.94912000       0.76527000       0.64343000
    43  N          0.55088000       0.26527000       0.85657000
    44  N          0.05088000       0.76527000       0.85657000
    45  N          0.55088000       0.73473000       0.35657000
    46  N          0.05088000       0.23473000       0.35657000
    47  N          0.44912000       0.73473000       0.14343000
    48  N          0.94912000       0.23473000       0.14343000
    49  C          0.47853000       0.39339000       0.60904000
    50  C          0.97853000       0.89339000       0.60904000
    51  C          0.52147000       0.39339000       0.89096000
    52  C          0.02147000       0.89339000       0.89096000
    53  C          0.52147000       0.60661000       0.39096000
    54  C          0.02147000       0.10661000       0.39096000
    55  C          0.47853000       0.60661000       0.10904000
    56  C          0.97853000       0.10661000       0.10904000
    57  C          0.39953000       0.32789000       0.66374000
    58  C          0.89953000       0.82789000       0.66374000
    59  C          0.60047000       0.32789000       0.83626000
    60  C          0.10047000       0.82789000       0.83626000
    61  C          0.60047000       0.67211000       0.33626000
    62  C          0.10047000       0.17211000       0.33626000
    63  C          0.39953000       0.67211000       0.16374000
    64  C          0.89953000       0.17211000       0.16374000
    65  C          0.58453000       0.40049000       0.74974000
    66  C          0.08453000       0.90049000       0.74974000
    67  C          0.41547000       0.40049000       0.75026000
    68  C          0.91547000       0.90049000       0.75026000
    69  C          0.41547000       0.59951000       0.25026000
    70  C          0.91547000       0.09951000       0.25026000
    71  C          0.58453000       0.59951000       0.24974000
    72  C          0.08453000       0.09951000       0.24974000
    73  H          0.55220000       0.48770000       0.74130000
    74  H          0.05220000      -0.01230000       0.74130000
    75  H          0.44780000       0.48770000       0.75870000
    76  H          0.94780000      -0.01230000       0.75870000
    77  H          0.44780000       0.51230000       0.25870000
    78  H          0.94780000       0.01230000       0.25870000
    79  H          0.55220000       0.51230000       0.24130000
    80  H          0.05220000       0.01230000       0.24130000
    81  H          0.37630000       0.21680000       0.67030000
    82  H          0.87630000       0.71680000       0.67030000
    83  H          0.62370000       0.21680000       0.82970000
    84  H          0.12370000       0.71680000       0.82970000
    85  H          0.62370000       0.78320000       0.32970000
    86  H          0.12370000       0.28320000       0.32970000
    87  H          0.37630000       0.78320000       0.17030000
    88  H          0.87630000       0.28320000       0.17030000
    89  H          0.60730000       0.43990000       0.73240000
    90  H          0.10730000       0.93990000       0.73240000
    91  H          0.39270000       0.43990000       0.76760000
    92  H          0.89270000       0.93990000       0.76760000
    93  H          0.39270000       0.56010000       0.26760000
    94  H          0.89270000       0.06010000       0.26760000
    95  H          0.60730000       0.56010000       0.23240000
    96  H          0.10730000       0.06010000       0.23240000
    97  H          0.54230000       0.21210000       0.71750000
    98  H          0.04230000       0.71210000       0.71750000
    99  H          0.45770000       0.21210000       0.78250000
   100  H          0.95770000       0.71210000       0.78250000
   101  H          0.45770000       0.78790000       0.28250000
   102  H          0.95770000       0.28790000       0.28250000
   103  H          0.54230000       0.78790000       0.21750000
   104  H          0.04230000       0.28790000       0.21750000
   105  H          0.38120000       0.42480000       0.61930000
   106  H          0.88120000       0.92480000       0.61930000
   107  H          0.61880000       0.42480000       0.88070000
   108  H          0.11880000       0.92480000       0.88070000
   109  H          0.61880000       0.57520000       0.38070000
   110  H          0.11880000       0.07520000       0.38070000
   111  H          0.38120000       0.57520000       0.11930000
   112  H          0.88120000       0.07520000       0.11930000
   113  H          0.45730000       0.43080000       0.55640000
   114  H          0.95730000       0.93080000       0.55640000
   115  H          0.54270000       0.43080000       0.94360000
   116  H          0.04270000       0.93080000       0.94360000
   117  H          0.54270000       0.56920000       0.44360000
   118  H          0.04270000       0.06920000       0.44360000
   119  H          0.45730000       0.56920000       0.05640000
   120  H          0.95730000       0.06920000       0.05640000
   121  H          0.47730000       0.50310000       0.64240000
   122  H          0.97730000       0.00310000       0.64240000
   123  H          0.52270000       0.50310000       0.85760000
   124  H          0.02270000       0.00310000       0.85760000
   125  H          0.52270000       0.49690000       0.35760000
   126  H          0.02270000      -0.00310000       0.35760000
   127  H          0.47730000       0.49690000       0.14240000
   128  H          0.97730000      -0.00310000       0.14240000
   129  H          0.53530000       0.22380000       0.56840000
   130  H          0.03530000       0.72380000       0.56840000
   131  H          0.46470000       0.22380000       0.93160000
   132  H          0.96470000       0.72380000       0.93160000
   133  H          0.46470000       0.77620000       0.43160000
   134  H          0.96470000       0.27620000       0.43160000
   135  H          0.53530000       0.77620000       0.06840000
   136  H          0.03530000       0.27620000       0.06840000
   137  H          0.43930000       0.17390000       0.60850000
   138  H          0.93930000       0.67390000       0.60850000
   139  H          0.56070000       0.17390000       0.89150000
   140  H          0.06070000       0.67390000       0.89150000
   141  H          0.56070000       0.82610000       0.39150000
   142  H          0.06070000       0.32610000       0.39150000
   143  H          0.43930000       0.82610000       0.10850000
   144  H          0.93930000       0.32610000       0.10850000
   145  H          0.58850000       0.20714000       0.68970000
   146  H          0.08850000       0.70714000       0.68970000
   147  H          0.41150000       0.20714000       0.81030000
   148  H          0.91150000       0.70714000       0.81030000
   149  H          0.41150000       0.79286000       0.31030000
   150  H          0.91150000       0.29286000       0.31030000
   151  H          0.58850000       0.79286000       0.18970000
   152  H          0.08850000       0.29286000       0.18970000
   153  H          0.55530000       0.41590000       0.59140000
   154  H          0.05530000       0.91590000       0.59140000
   155  H          0.44470000       0.41590000       0.90860000
   156  H          0.94470000       0.91590000       0.90860000
   157  H          0.44470000       0.58410000       0.40860000
   158  H          0.94470000       0.08410000       0.40860000
   159  H          0.55530000       0.58410000       0.09140000
   160  H          0.05530000       0.08410000       0.09140000
   161  H          0.62430000       0.21680000       0.83030000
   162  H          0.12430000       0.71680000       0.83030000
   163  H          0.37570000       0.21680000       0.66970000
   164  H          0.87570000       0.71680000       0.66970000
   165  H          0.37570000       0.78320000       0.16970000
   166  H          0.87570000       0.28320000       0.16970000
   167  H          0.62430000       0.78320000       0.33030000
   168  H          0.12430000       0.28320000       0.33030000
   169  H          0.56130000       0.17390000       0.89250000
   170  H          0.06130000       0.67390000       0.89250000
   171  H          0.43870000       0.17390000       0.60750000
   172  H          0.93870000       0.67390000       0.60750000
   173  H          0.43870000       0.82610000       0.10750000
   174  H          0.93870000       0.32610000       0.10750000
   175  H          0.56130000       0.82610000       0.39250000
   176  H          0.06130000       0.32610000       0.39250000
   177  H          0.54330000       0.43080000       0.94440000
   178  H          0.04330000       0.93080000       0.94440000
   179  H          0.45670000       0.43080000       0.55560000
   180  H          0.95670000       0.93080000       0.55560000
   181  H          0.45670000       0.56920000       0.05560000
   182  H          0.95670000       0.06920000       0.05560000
   183  H          0.54330000       0.56920000       0.44440000
   184  H          0.04330000       0.06920000       0.44440000
   185  H          0.52330000       0.50310000       0.85840000
   186  H          0.02330000       0.00310000       0.85840000
   187  H          0.47670000       0.50310000       0.64160000
   188  H          0.97670000       0.00310000       0.64160000
   189  H          0.47670000       0.49690000       0.14160000
   190  H          0.97670000      -0.00310000       0.14160000
   191  H          0.52330000       0.49690000       0.35840000
   192  H          0.02330000      -0.00310000       0.35840000
   193  H          0.46530000       0.22380000       0.93240000
   194  H          0.96530000       0.72380000       0.93240000
   195  H          0.53470000       0.22380000       0.56760000
   196  H          0.03470000       0.72380000       0.56760000
   197  H          0.53470000       0.77620000       0.06760000
   198  H          0.03470000       0.27620000       0.06760000
   199  H          0.46530000       0.77620000       0.43240000
   200  H          0.96530000       0.27620000       0.43240000
   201  H          0.44530000       0.41590000       0.90940000
   202  H          0.94530000       0.91590000       0.90940000
   203  H          0.55470000       0.41590000       0.59060000
   204  H          0.05470000       0.91590000       0.59060000
   205  H          0.55470000       0.58410000       0.09060000
   206  H          0.05470000       0.08410000       0.09060000
   207  H          0.44530000       0.58410000       0.40940000
   208  H          0.94530000       0.08410000       0.40940000
   209  H          0.45830000       0.21210000       0.78350000
   210  H          0.95830000       0.71210000       0.78350000
   211  H          0.54170000       0.21210000       0.71650000
   212  H          0.04170000       0.71210000       0.71650000
   213  H          0.54170000       0.78790000       0.21650000
   214  H          0.04170000       0.28790000       0.21650000
   215  H          0.45830000       0.78790000       0.28350000
   216  H          0.95830000       0.28790000       0.28350000
   217  H          0.41250000       0.20714000       0.81170000
   218  H          0.91250000       0.70714000       0.81170000
   219  H          0.58750000       0.20714000       0.68830000
   220  H          0.08750000       0.70714000       0.68830000
   221  H          0.58750000       0.79286000       0.18830000
   222  H          0.08750000       0.29286000       0.18830000
   223  H          0.41250000       0.79286000       0.31170000
   224  H          0.91250000       0.29286000       0.31170000
   225  H          0.39330000       0.43990000       0.76840000
   226  H          0.89330000       0.93990000       0.76840000
   227  H          0.60670000       0.43990000       0.73160000
   228  H          0.10670000       0.93990000       0.73160000
   229  H          0.60670000       0.56010000       0.23160000
   230  H          0.10670000       0.06010000       0.23160000
   231  H          0.39330000       0.56010000       0.26840000
   232  H          0.89330000       0.06010000       0.26840000
   233  N          0.67163000       0.16958000       0.68564000
   234  N          0.17163000       0.66958000       0.68564000
   235  N          0.32837000       0.16958000       0.81436000
   236  N          0.82837000       0.66958000       0.81436000
   237  N          0.32837000       0.83042000       0.31436000
   238  N          0.82837000       0.33042000       0.31436000
   239  N          0.67163000       0.83042000       0.18564000
   240  N          0.17163000       0.33042000       0.18564000
   241  C          0.71223000       0.11719000       0.68184000
   242  C          0.21223000       0.61719000       0.68184000
   243  C          0.28777000       0.11719000       0.81816000
   244  C          0.78777000       0.61719000       0.81816000
   245  C          0.28777000       0.88281000       0.31816000
   246  C          0.78777000       0.38281000       0.31816000
   247  C          0.71223000       0.88281000       0.18184000
   248  C          0.21223000       0.38281000       0.18184000
   249  C          0.76523000       0.05231000       0.67655000
   250  C          0.26523000       0.55231000       0.67655000
   251  C          0.23477000       0.05231000       0.82345000
   252  C          0.73477000       0.55231000       0.82345000
   253  C          0.23477000       0.94769000       0.32345000
   254  C          0.73477000       0.44769000       0.32345000
   255  C          0.76523000       0.94769000       0.17655000
   256  C          0.26523000       0.44769000       0.17655000
   257  H          0.76790000       0.05480000       0.61920000
   258  H          0.26790000       0.55480000       0.61920000
   259  H          0.23210000       0.05480000       0.88080000
   260  H          0.73210000       0.55480000       0.88080000
   261  H          0.23210000       0.94520000       0.38080000
   262  H          0.73210000       0.44520000       0.38080000
   263  H          0.76790000       0.94520000       0.11920000
   264  H          0.26790000       0.44520000       0.11920000
   265  H          0.76910000       0.93790000       0.69670000
   266  H          0.26910000       0.43790000       0.69670000
   267  H          0.23090000       0.93790000       0.80330000
   268  H          0.73090000       0.43790000       0.80330000
   269  H          0.23090000       0.06210000       0.30330000
   270  H          0.73090000       0.56210000       0.30330000
   271  H          0.76910000       0.06210000       0.19670000
   272  H          0.26910000       0.56210000       0.19670000
   273  H          0.79390000       0.12090000       0.71010000
   274  H          0.29390000       0.62090000       0.71010000
   275  H          0.20610000       0.12090000       0.78990000
   276  H          0.70610000       0.62090000       0.78990000
   277  H          0.20610000       0.87910000       0.28990000
   278  H          0.70610000       0.37910000       0.28990000
   279  H          0.79390000       0.87910000       0.21010000
   280  H          0.29390000       0.37910000       0.21010000
   281  I          0.66057419       0.67415400       0.58610300
   282  I          0.16057419       0.17415400       0.58610300
   283  I          0.33942581       0.67415400       0.91389700
   284  I          0.83942581       0.17415400       0.91389700
   285  I          0.33942581       0.32584600       0.41389700
   286  I          0.83942581       0.82584600       0.41389700
   287  I          0.66057419       0.32584600       0.08610300
   288  I          0.16057419       0.82584600       0.08610300
   289  I          0.75468819       0.52343400       0.57089300
   290  I          0.25468819       0.02343400       0.57089300
   291  I          0.24531181       0.52343400       0.92910700
   292  I          0.74531181       0.02343400       0.92910700
   293  I          0.24531181       0.47656600       0.42910700
   294  I          0.74531181       0.97656600       0.42910700
   295  I          0.75468819       0.47656600       0.07089300
   296  I          0.25468819       0.97656600       0.07089300
