data_GAFGUQ
_symmetry_space_group_name_H-M    'P1'
_symmetry_Int_Tables_number       1
loop_
_symmetry_equiv_pos_site_id
_symmetry_equiv_pos_as_xyz
1 x,y,z
_cell_length_a                   8.16262
_cell_length_b                   22.75325
_cell_length_c                   8.25452
_cell_angle_alpha                90.0
_cell_angle_beta                 92.97001
_cell_angle_gamma                90.0
loop_
_atom_site_label
_atom_site_type_symbol
_atom_site_fract_x
_atom_site_fract_y
_atom_site_fract_z
     1  I          0.19859500       0.50626200       0.80152500
     2  I          0.80140500       0.00626200       0.69847500
     3  I          0.80140500       0.49373800       0.19847500
     4  I          0.19859500       0.99373800       0.30152500
     5  N          0.16736000       0.40872000       0.15257000
     6  N          0.83264000       0.90872000       0.34743000
     7  N          0.83264000       0.59128000       0.84743000
     8  N          0.16736000       0.09128000       0.65257000
     9  H          0.09260000       0.40540000       0.23170000
    10  H          0.90740000       0.90540000       0.26830000
    11  H          0.90740000       0.59460000       0.76830000
    12  H          0.09260000       0.09460000       0.73170000
    13  H          0.14850000       0.44390000       0.10010000
    14  H          0.85150000       0.94390000       0.39990000
    15  H          0.85150000       0.55610000       0.89990000
    16  H          0.14850000       0.05610000       0.60010000
    17  C          0.36128000       0.46343000       0.33568000
    18  C          0.63872000       0.96343000       0.16432000
    19  C          0.63872000       0.53657000       0.66432000
    20  C          0.36128000       0.03657000       0.83568000
    21  H          0.28210000       0.46340000       0.42260000
    22  H          0.71790000       0.96340000       0.07740000
    23  H          0.71790000       0.53660000       0.57740000
    24  H          0.28210000       0.03660000       0.92260000
    25  H          0.47360000       0.46430000       0.38650000
    26  H          0.52640000       0.96430000       0.11350000
    27  H          0.52640000       0.53570000       0.61350000
    28  H          0.47360000       0.03570000       0.88650000
    29  N          0.89206000       0.39753000       0.86787000
    30  N          0.10794000       0.89753000       0.63213000
    31  N          0.10794000       0.60247000       0.13213000
    32  N          0.89206000       0.10247000       0.36787000
    33  H          0.88580000       0.43230000       0.92410000
    34  H          0.11420000       0.93230000       0.57590000
    35  H          0.11420000       0.56770000       0.07590000
    36  H          0.88580000       0.06770000       0.42410000
    37  H          0.96090000       0.40330000       0.78440000
    38  H          0.03910000       0.90330000       0.71560000
    39  H          0.03910000       0.59670000       0.21560000
    40  H          0.96090000       0.09670000       0.28440000
    41  C          0.33788000       0.40913000       0.23138000
    42  C          0.66212000       0.90913000       0.26862000
    43  C          0.66212000       0.59087000       0.76862000
    44  C          0.33788000       0.09087000       0.73138000
    45  H          0.41950000       0.40880000       0.14680000
    46  H          0.58050000       0.90880000       0.35320000
    47  H          0.58050000       0.59120000       0.85320000
    48  H          0.41950000       0.09120000       0.64680000
    49  H          0.35470000       0.37350000       0.29900000
    50  H          0.64530000       0.87350000       0.20100000
    51  H          0.64530000       0.62650000       0.70100000
    52  H          0.35470000       0.12650000       0.79900000
    53  N          0.33408000       0.51473000       0.23097000
    54  N          0.66592000       0.01473000       0.26903000
    55  N          0.66592000       0.48527000       0.76903000
    56  N          0.33408000       0.98527000       0.73097000
    57  C          0.14059000       0.36033000       0.03468000
    58  C          0.85941000       0.86033000       0.46532000
    59  C          0.85941000       0.63967000       0.96532000
    60  C          0.14059000       0.13967000       0.53468000
    61  H          0.18380000       0.32340000       0.08430000
    62  H          0.81620000       0.82340000       0.41570000
    63  H          0.81620000       0.67660000       0.91570000
    64  H          0.18380000       0.17660000       0.58430000
    65  H          0.20410000       0.36850000       0.93830000
    66  H          0.79590000       0.86850000       0.56170000
    67  H          0.79590000       0.63150000       0.06170000
    68  H          0.20410000       0.13150000       0.43830000
    69  C          0.96348000       0.35083000       0.97968000
    70  C          0.03652000       0.85083000       0.52032000
    71  C          0.03652000       0.64917000       0.02032000
    72  C          0.96348000       0.14917000       0.47968000
    73  H          0.95370000       0.31230000       0.92370000
    74  H          0.04630000       0.81230000       0.57630000
    75  H          0.04630000       0.68770000       0.07630000
    76  H          0.95370000       0.18770000       0.42370000
    77  H          0.89710000       0.34870000       0.07660000
    78  H          0.10290000       0.84870000       0.42340000
    79  H          0.10290000       0.65130000       0.92340000
    80  H          0.89710000       0.15130000       0.57660000
    81  C          0.72598000       0.38183000       0.79878000
    82  C          0.27402000       0.88183000       0.70122000
    83  C          0.27402000       0.61817000       0.20122000
    84  C          0.72598000       0.11817000       0.29878000
    85  H          0.64940000       0.37750000       0.88710000
    86  H          0.35060000       0.87750000       0.61290000
    87  H          0.35060000       0.62250000       0.11290000
    88  H          0.64940000       0.12250000       0.38710000
    89  H          0.73070000       0.34380000       0.74040000
    90  H          0.26930000       0.84380000       0.75960000
    91  H          0.26930000       0.65620000       0.25960000
    92  H          0.73070000       0.15620000       0.24040000
    93  H          0.42480000       0.52840000       0.16190000
    94  H          0.57520000       0.02840000       0.33810000
    95  H          0.57520000       0.47160000       0.83810000
    96  H          0.42480000       0.97160000       0.66190000
    97  C          0.33478000       0.57073000       0.31679000
    98  C          0.66522000       0.07073000       0.18321000
    99  C          0.66522000       0.42927000       0.68321000
   100  C          0.33478000       0.92927000       0.81679000
   101  H          0.26270000       0.56820000       0.40940000
   102  H          0.73730000       0.06820000       0.09060000
   103  H          0.73730000       0.43180000       0.59060000
   104  H          0.26270000       0.93180000       0.90940000
   105  H          0.44730000       0.57990000       0.35940000
   106  H          0.55270000       0.07990000       0.14060000
   107  H          0.55270000       0.42010000       0.64060000
   108  H          0.44730000       0.92010000       0.85940000
   109  H          0.57680000       0.47240000       0.83990000
   110  H          0.42320000       0.97240000       0.66010000
   111  H          0.42320000       0.52760000       0.16010000
   112  H          0.57680000       0.02760000       0.33990000
   113  I          0.40258500       0.26725200       0.73780500
   114  I          0.59741500       0.76725200       0.76219500
   115  I          0.59741500       0.73274800       0.26219500
   116  I          0.40258500       0.23274800       0.23780500
   117  I          0.69299500       0.21300200       0.85629500
   118  I          0.30700500       0.71300200       0.64370500
   119  I          0.30700500       0.78699800       0.14370500
   120  I          0.69299500       0.28699800       0.35629500
   121  I          0.03456500       0.16741200       0.00348500
   122  I          0.96543500       0.66741200       0.49651500
   123  I          0.96543500       0.83258800      -0.00348500
   124  I          0.03456500       0.33258800       0.50348500
