data_GAFJON
_symmetry_space_group_name_H-M    'P1'
_symmetry_Int_Tables_number       1
loop_
_symmetry_equiv_pos_site_id
_symmetry_equiv_pos_as_xyz
1 x,y,z
_cell_length_a                   8.50832
_cell_length_b                   11.77413
_cell_length_c                   13.64934
_cell_angle_alpha                91.38401
_cell_angle_beta                 98.07701
_cell_angle_gamma                99.4842
loop_
_atom_site_label
_atom_site_type_symbol
_atom_site_fract_x
_atom_site_fract_y
_atom_site_fract_z
     1  C          0.10084000       0.29113000       0.55253000
     2  C          0.89916000       0.70887000       0.44747000
     3  H          0.16710000       0.32200000       0.50190000
     4  H          0.83290000       0.67800000       0.49810000
     5  H          0.08480000       0.35630000       0.59500000
     6  H          0.91520000       0.64370000       0.40500000
     7  C          0.94086000       0.22543000       0.50352000
     8  C          0.05914000       0.77457000       0.49648000
     9  H          0.86170000       0.27740000       0.48650000
    10  H          0.13830000       0.72260000       0.51350000
    11  H          0.95210000       0.18110000       0.44300000
    12  H          0.04790000       0.81890000       0.55700000
    13  C          0.89556000       0.14843000       0.58282000
    14  C          0.10444000       0.85157000       0.41718000
    15  H          0.81670000       0.07970000       0.55560000
    16  H          0.18330000       0.92030000       0.44440000
    17  H          0.85030000       0.18930000       0.63350000
    18  H          0.14970000       0.81070000       0.36650000
    19  C          0.05814000       0.11543000       0.62543000
    20  C          0.94186000       0.88457000       0.37457000
    21  H          0.06200000       0.10130000       0.69690000
    22  H          0.93800000       0.89870000       0.30310000
    23  H          0.07580000       0.04500000       0.59040000
    24  H          0.92420000       0.95500000       0.40960000
    25  O          0.17772000       0.21243170       0.61025140
    26  O          0.82228000       0.78756830       0.38974860
    27  H          0.37230000       0.11520000       0.09520000
    28  H          0.62770000       0.88480000       0.90480000
    29  H          0.72830000       0.17530000       0.10520000
    30  H          0.27170000       0.82470000       0.89480000
    31  H          0.01930000       0.10920000       0.96768100
    32  H         -0.01930000       0.89080000       0.03231900
    33  H          0.70630000       0.10320000       0.88180000
    34  H          0.29370000       0.89680000       0.11820000
    35  H          0.38740000       0.24420000       0.71380000
    36  H          0.61260000       0.75580000       0.28620000
    37  C          0.72993000       0.27122000       0.22982170
    38  C          0.27007000       0.72878000       0.77017830
    39  H          0.84610000       0.27300000       0.25220000
    40  H          0.15390000       0.72700000       0.74780000
    41  H          0.66860000       0.21690000       0.27070000
    42  H          0.33140000       0.78310000       0.72930000
    43  C          0.68973000       0.39062000       0.24442000
    44  C          0.31027000       0.60938000       0.75558000
    45  H          0.70820000       0.41280000       0.31600000
    46  H          0.29180000       0.58720000       0.68400000
    47  H          0.76240000       0.44670000       0.21140000
    48  H          0.23760000       0.55330000       0.78860000
    49  C          0.51663000       0.39572000       0.20262170
    50  C          0.48337000       0.60428000       0.79737830
    51  H          0.44360000       0.33990000       0.23560000
    52  H          0.55640000       0.66010000       0.76440000
    53  H          0.49350000       0.47380000       0.21630000
    54  H          0.50650000       0.52620000       0.78370000
    55  C          0.34603000       0.40997180       0.04070170
    56  C          0.65397000       0.59002820       0.95929830
    57  H          0.34570000       0.39580000       0.96890000
    58  H          0.65430000       0.60420000       0.03110000
    59  H          0.35880000       0.49440000       0.05350000
    60  H          0.64120000       0.50560000       0.94650000
    61  C          0.18133000       0.35360180       0.06711170
    62  C          0.81867000       0.64639820       0.93288830
    63  H          0.19090000       0.27750000       0.09450000
    64  H          0.80910000       0.72250000       0.90550000
    65  H          0.15090000       0.40230000       0.11900000
    66  H          0.84910000       0.59770000       0.88100000
    67  C          0.04863000       0.33766180       0.97726830
    68  C          0.95137000       0.66233820       0.02273170
    69  H          0.94350000       0.31220000       0.00000000
    70  H          0.05650000       0.68780000       0.00000000
    71  H          0.04520000       0.41300000       0.94700000
    72  H          0.95480000       0.58700000       0.05300000
    73  C          0.07213000       0.25014170       0.89844830
    74  C          0.92787000       0.74985830       0.10155170
    75  H         -0.02080000       0.24110000       0.84470000
    76  H          0.02080000       0.75890000       0.15530000
    77  H          0.17000000       0.28060000       0.86940000
    78  H          0.83000000       0.71940000       0.13060000
    79  C          0.64853000       0.02508170       0.75793850
    80  C          0.35147000       0.97491830       0.24206150
    81  C          0.52603000      -0.00222000       0.67738840
    82  C          0.47397000       0.00222000       0.32261160
    83  H          0.43700000       0.03770000       0.67040000
    84  H          0.56300000       0.96230000       0.32960000
    85  C          0.53443000       0.91208000       0.60739820
    86  C          0.46557000       0.08792000       0.39260180
    87  H          0.45160000       0.89510000       0.55210000
    88  H          0.54840000       0.10490000       0.44790000
    89  C          0.66134000       0.85128000       0.61678000
    90  C          0.33866000       0.14872000       0.38322000
    91  H          0.66490000       0.79220000       0.56890000
    92  H          0.33510000       0.20780000       0.43110000
    93  C          0.78313000       0.87748000       0.69699810
    94  C          0.21687000       0.12252000       0.30300190
    95  H          0.87020000       0.83580000       0.70420000
    96  H          0.12980000       0.16420000       0.29580000
    97  C          0.77883000       0.96404810       0.76649840
    98  C          0.22117000       0.03595190       0.23350160
    99  H          0.86400000       0.98240000       0.82030000
   100  H          0.13600000       0.01760000       0.17970000
   101  C          0.59522000       0.33140170       0.70451850
   102  C          0.40478000       0.66859830       0.29548150
   103  C          0.74513000       0.37502180       0.75922840
   104  C          0.25487000       0.62497820       0.24077160
   105  H          0.77020000       0.35380000       0.82560000
   106  H          0.22980000       0.64620000       0.17440000
   107  C          0.85773000       0.44942000       0.71657820
   108  C          0.14227000       0.55058000       0.28342180
   109  H          0.96030000       0.47740000       0.75380000
   110  H          0.03970000       0.52260000       0.24620000
   111  C          0.82323000       0.48322000       0.62148000
   112  C          0.17677000       0.51678000       0.37852000
   113  H          0.90100000       0.53420000       0.59300000
   114  H          0.09900000       0.46580000       0.40700000
   115  C          0.67313000       0.44183000       0.56757810
   116  C          0.32687000       0.55817000       0.43242190
   117  H          0.64740000       0.46600000       0.50220000
   118  H          0.35260000       0.53400000       0.49780000
   119  C          0.56033000       0.36572000       0.60794830
   120  C          0.43967000       0.63428000       0.39205170
   121  H          0.45880000       0.33670000       0.56970000
   122  H          0.54120000       0.66330000       0.43030000
   123  N          0.39012000       0.13883140       0.04268130
   124  N          0.60988000       0.86116860       0.95731870
   125  N          0.33152000       0.10623140       0.84854880
   126  N          0.66848000       0.89376860       0.15145120
   127  N          0.57492000       0.27044140       0.93964880
   128  N          0.42508000       0.72955860       0.06035120
   129  N          0.69042000       0.23079160       0.12584130
   130  N          0.30958000       0.76920840       0.87415870
   131  N          0.48652000       0.36887140       0.09533130
   132  N          0.51348000       0.63112860       0.90466870
   133  N          0.08782000       0.13700150       0.93666860
   134  N          0.91218000       0.86299850       0.06333140
   135  N          0.64862000       0.11098140       0.83144870
   136  N          0.35138000       0.88901860       0.16855130
   137  N          0.47672000       0.25718150       0.74494870
   138  N          0.52328000       0.74281850       0.25505130
   139  O          0.20120160       0.95509890       0.96988900
   140  O          0.79879840       0.04490110       0.03011100
   141  P          0.53697600       0.25243400       0.04832400
   142  P          0.46302400       0.74756600       0.95167600
   143  P          0.25073600       0.07826400       0.94560600
   144  P          0.74926400       0.92173600       0.05439400
   145  P          0.50128600       0.18426400       0.84647600
   146  P          0.49871400       0.81573600       0.15352400
