data_GAFNIN
_symmetry_space_group_name_H-M    'P1'
_symmetry_Int_Tables_number       1
loop_
_symmetry_equiv_pos_site_id
_symmetry_equiv_pos_as_xyz
1 x,y,z
_cell_length_a                   4.93601
_cell_length_b                   10.1842
_cell_length_c                   17.4884
_cell_angle_alpha                90.393
_cell_angle_beta                 94.033
_cell_angle_gamma                100.993
loop_
_atom_site_label
_atom_site_type_symbol
_atom_site_fract_x
_atom_site_fract_y
_atom_site_fract_z
     1  C          0.37851000       0.35526000       0.93263000
     2  C          0.62149000       0.64474000       0.06737000
     3  H          0.25590000       0.36410000       0.96940000
     4  H          0.74410000       0.63590000       0.03060000
     5  C          0.46681100       0.45885000       0.88763000
     6  C          0.53318900       0.54115000       0.11237000
     7  H          0.40660000       0.53940000       0.89270000
     8  H          0.59340000       0.46060000       0.10730000
     9  C          0.94459000       0.31085000       0.76453000
    10  C          0.05541000       0.68915000       0.23547000
    11  C          0.74489000       0.32495000       0.82353000
    12  C          0.25511000       0.67505000       0.17647000
    13  C          0.65171100       0.44195000       0.83293000
    14  C          0.34828900       0.55805000       0.16707000
    15  H          0.71420000       0.51320000       0.80170000
    16  H          0.28580000       0.48680000       0.19830000
    17  C          0.64659000       0.21745000       0.87303000
    18  C          0.35341000       0.78255000       0.12697000
    19  N          0.71919000       0.10074000       0.86983000
    20  N          0.28081000       0.89926000       0.13017000
    21  H          0.65270000       0.03860000       0.90020000
    22  H          0.34730000       0.96140000       0.09980000
    23  H          0.83330000       0.08590000       0.83730000
    24  H          0.16670000       0.91410000       0.16270000
    25  N          0.46638000       0.23794000       0.92482000
    26  N          0.53362000       0.76206000       0.07518000
    27  H          0.40450000       0.17330000       0.95410000
    28  H          0.59550000       0.82670000       0.04590000
    29  O          0.04367000       0.20623000       0.76492000
    30  O          0.95633000       0.79377000       0.23508000
    31  O          0.00007000       0.40204000       0.71742000
    32  O         -0.00007000       0.59796000       0.28258000
    33  C          0.45698900       0.03835000       0.67413000
    34  C          0.54301100       0.96165000       0.32587000
    35  H          0.38570000       0.98330000       0.71310000
    36  H          0.61430000       0.01670000       0.28690000
    37  C          0.76098900       0.28756000       0.49293000
    38  C          0.23901100       0.71244000       0.50707000
    39  C          0.73278900       0.08076000       0.56893000
    40  C          0.26721100       0.91924000       0.43107000
    41  H          0.85360000       0.05340000       0.53630000
    42  H          0.14640000       0.94660000       0.46370000
    43  C          0.63578800      -0.00316000       0.62723000
    44  C          0.36421200       0.00316000       0.37277000
    45  H          0.69070000       0.91510000       0.63420000
    46  H          0.30930000       0.08490000       0.36580000
    47  C          0.65749000       0.20225000       0.55733000
    48  C          0.34251000       0.79775000       0.44267000
    49  C          0.47169000       0.24305000       0.60823000
    50  C          0.52831000       0.75695000       0.39177000
    51  N          0.38371000       0.35605000       0.60553000
    52  N          0.61629000       0.64395000       0.39447000
    53  H          0.27430000       0.37380000       0.63860000
    54  H          0.72570000       0.62620000       0.36140000
    55  H          0.43530000       0.41260000       0.57070000
    56  H          0.56470000       0.58740000       0.42930000
    57  N          0.38382000       0.15764000       0.66432000
    58  N          0.61618000       0.84236000       0.33568000
    59  H          0.27440000       0.18130000       0.69550000
    60  H          0.72560000       0.81870000       0.30450000
    61  O          0.68481000       0.39084000       0.47742000
    62  O          0.31519000       0.60916000       0.52258000
    63  O          0.93291000       0.23684000       0.45372000
    64  O          0.06709000       0.76316000       0.54628000
    65  H          0.00070000       0.29160000       0.42280000
    66  H         -0.00070000       0.70840000       0.57720000
    67  O          0.86459000       0.29325000       0.08384000
    68  O          0.13541000       0.70675000       0.91616000
    69  O          0.89901000       0.12557000       0.17283000
    70  O          0.10099000       0.87443000       0.82717000
    71  O          0.21568000       0.17294000       0.07993000
    72  O          0.78432000       0.82706000       0.92007000
    73  O          0.75317000       0.07104000       0.04642000
    74  O          0.24683000       0.92896000       0.95358000
    75  Cl         0.93292000       0.16677120       0.09613700
    76  Cl         0.06708000       0.83322880       0.90386300
    77  O          0.05659000       0.34974000       0.32532000
    78  O          0.94341000       0.65026000       0.67468000
    79  H          0.21080000       0.33560000       0.31720000
    80  H          0.78920000       0.66440000       0.68280000
    81  H          0.02713000       0.42540000       0.31650000
    82  H         -0.02713000       0.57460000       0.68350000
    83  O          0.48471000       0.27005000       0.25703000
    84  O          0.51529000       0.72995000       0.74297000
    85  H          0.64370000       0.28990000       0.27640000
    86  H          0.35630000       0.71010000       0.72360000
    87  H          0.46814000       0.25190000       0.21071600
    88  H          0.53186000       0.74810000       0.78928400
