data_GAGXOF
_symmetry_space_group_name_H-M    'P1'
_symmetry_Int_Tables_number       1
loop_
_symmetry_equiv_pos_site_id
_symmetry_equiv_pos_as_xyz
1 x,y,z
_cell_length_a                   14.72114
_cell_length_b                   7.97612
_cell_length_c                   22.23907
_cell_angle_alpha                90.0
_cell_angle_beta                 97.8073
_cell_angle_gamma                90.0
loop_
_atom_site_label
_atom_site_type_symbol
_atom_site_fract_x
_atom_site_fract_y
_atom_site_fract_z
     1  O          0.47657190       0.41314000       0.71883120
     2  O          0.52342810       0.91314000       0.78116880
     3  O          0.52342810       0.58686000       0.28116880
     4  O          0.47657190       0.08686000       0.21883120
     5  O          0.48575190       0.26154000       0.62842120
     6  O          0.51424810       0.76154000       0.87157880
     7  O          0.51424810       0.73846000       0.37157880
     8  O          0.48575190       0.23846000       0.12842120
     9  N          0.53632000       0.55734000       0.63304150
    10  N          0.46368000       0.05734000       0.86695850
    11  N          0.46368000       0.44266000       0.36695850
    12  N          0.53632000       0.94266000       0.13304150
    13  C          0.63953000       0.33195000       0.69440180
    14  C          0.36047000       0.83195000       0.80559820
    15  C          0.36047000       0.66805000       0.30559820
    16  C          0.63953000       0.16805000       0.19440180
    17  C          0.68653000       0.39456000       0.74862000
    18  C          0.31347000       0.89456000       0.75138000
    19  C          0.31347000       0.60544000       0.25138000
    20  C          0.68653000       0.10544000       0.24862000
    21  H          0.65580000       0.46350000       0.77290000
    22  H          0.34420000       0.96350000       0.72710000
    23  H          0.34420000       0.53650000       0.22710000
    24  H          0.65580000       0.03650000       0.27290000
    25  C          0.77833000       0.35587000       0.76702000
    26  C          0.22167000       0.85587000       0.73298000
    27  C          0.22167000       0.64413000       0.23298000
    28  C          0.77833000       0.14413000       0.26702000
    29  H          0.80840000       0.39930000       0.80310000
    30  H          0.19160000       0.89930000       0.69690000
    31  H          0.19160000       0.60070000       0.19690000
    32  H          0.80840000       0.10070000       0.30310000
    33  C          0.82453000       0.25327000       0.73172000
    34  C          0.17547000       0.75327000       0.76828000
    35  C          0.17547000       0.74673000       0.26828000
    36  C          0.82453000       0.24673000       0.23172000
    37  H          0.88570000       0.22660000       0.74410000
    38  H          0.11430000       0.72660000       0.75590000
    39  H          0.11430000       0.77340000       0.25590000
    40  H          0.88570000       0.27340000       0.24410000
    41  C          0.78003000       0.18976000       0.67772000
    42  C          0.21997000       0.68976000       0.82228000
    43  C          0.21997000       0.81024000       0.32228000
    44  C          0.78003000       0.31024000       0.17772000
    45  H          0.81140000       0.12120000       0.65360000
    46  H          0.18860000       0.62120000       0.84640000
    47  H          0.18860000       0.87880000       0.34640000
    48  H          0.81140000       0.37880000       0.15360000
    49  C          0.68853000       0.22816000       0.65932000
    50  C          0.31147000       0.72816000       0.84068000
    51  C          0.31147000       0.77184000       0.34068000
    52  C          0.68853000       0.27184000       0.15932000
    53  H          0.65910000       0.18410000       0.62310000
    54  H          0.34090000       0.68410000       0.87690000
    55  H          0.34090000       0.81590000       0.37690000
    56  H          0.65910000       0.31590000       0.12310000
    57  C          0.39693000       0.26285000       0.64089190
    58  C          0.60307000       0.76285000       0.85910810
    59  C          0.60307000       0.73715000       0.35910810
    60  C          0.39693000       0.23715000       0.14089190
    61  C          0.32333000       0.18916000       0.60882000
    62  C          0.67667000       0.68916000       0.89118000
    63  C          0.67667000       0.81084000       0.39118000
    64  C          0.32333000       0.31084000       0.10882000
    65  H          0.32890000       0.12890000       0.57370000
    66  H          0.67110000       0.62890000       0.92630000
    67  H          0.67110000       0.87110000       0.42630000
    68  H          0.32890000       0.37110000       0.07370000
    69  C          0.23663000       0.20596000       0.63032000
    70  C          0.76337000       0.70596000       0.86968000
    71  C          0.76337000       0.79404000       0.36968000
    72  C          0.23663000       0.29404000       0.13032000
    73  C          0.15613000       0.13237000       0.59862000
    74  C          0.84387000       0.63237000       0.90138000
    75  C          0.84387000       0.86763000       0.40138000
    76  C          0.15613000       0.36763000       0.09862000
    77  H          0.15960000       0.07150000       0.56330000
    78  H          0.84040000       0.57150000       0.93670000
    79  H          0.84040000       0.92850000       0.43670000
    80  H          0.15960000       0.42850000       0.06330000
    81  C          0.07324000       0.15008000       0.61953000
    82  C          0.92676000       0.65008000       0.88047000
    83  C          0.92676000       0.84992000       0.38047000
    84  C          0.07324000       0.34992000       0.11953000
    85  H          0.02080000       0.10190000       0.59850000
    86  H          0.97920000       0.60190000       0.90150000
    87  H          0.97920000       0.89810000       0.40150000
    88  H          0.02080000       0.39810000       0.09850000
    89  C          0.06794000       0.24098000       0.67283000
    90  C          0.93206000       0.74098000       0.82717000
    91  C          0.93206000       0.75902000       0.32717000
    92  C          0.06794000       0.25902000       0.17283000
    93  H          0.01160000       0.25200000       0.68690000
    94  H          0.98840000       0.75200000       0.81310000
    95  H          0.98840000       0.74800000       0.31310000
    96  H          0.01160000       0.24800000       0.18690000
    97  C          0.14363000       0.31347000       0.70443000
    98  C          0.85637000       0.81347000       0.79557000
    99  C          0.85637000       0.68653000       0.29557000
   100  C          0.14363000       0.18653000       0.20443000
   101  H          0.13800000       0.37380000       0.73940000
   102  H          0.86200000       0.87380000       0.76060000
   103  H          0.86200000       0.62620000       0.26060000
   104  H          0.13800000       0.12620000       0.23940000
   105  C          0.23083000       0.29796000       0.68452000
   106  C          0.76917000       0.79796000       0.81548000
   107  C          0.76917000       0.70204000       0.31548000
   108  C          0.23083000       0.20204000       0.18452000
   109  C          0.31063000       0.37396000       0.71722000
   110  C          0.68937000       0.87396000       0.78278000
   111  C          0.68937000       0.62604000       0.28278000
   112  C          0.31063000       0.12604000       0.21722000
   113  H          0.30730000       0.43460000       0.75250000
   114  H          0.69270000       0.93460000       0.74750000
   115  H          0.69270000       0.56540000       0.24750000
   116  H          0.30730000       0.06540000       0.25250000
   117  C          0.39133000       0.35445000       0.69486190
   118  C          0.60867000       0.85445000       0.80513810
   119  C          0.60867000       0.64555000       0.30513810
   120  C          0.39133000       0.14555000       0.19486190
   121  C          0.51623000       0.70535000       0.65560180
   122  C          0.48377000       0.20535000       0.84439820
   123  C          0.48377000       0.29465000       0.34439820
   124  C          0.51623000       0.79465000       0.15560180
   125  H          0.50010000       0.71000000       0.69460000
   126  H          0.49990000       0.21000000       0.80540000
   127  H          0.49990000       0.29000000       0.30540000
   128  H          0.50010000       0.79000000       0.19460000
   129  C          0.51863000       0.85245000       0.62280190
   130  C          0.48137000       0.35245000       0.87719810
   131  C          0.48137000       0.14755000       0.37719810
   132  C          0.51863000       0.64755000       0.12280190
   133  H          0.50470000       0.95430000       0.63980000
   134  H          0.49530000       0.45430000       0.86020000
   135  H          0.49530000       0.04570000       0.36020000
   136  H          0.50470000       0.54570000       0.13980000
   137  C          0.54193000       0.84675000       0.56430180
   138  C          0.45807000       0.34675000       0.93569820
   139  C          0.45807000       0.15325000       0.43569820
   140  C          0.54193000       0.65325000       0.06430180
   141  C          0.56373000       0.69216000       0.54181190
   142  C          0.43627000       0.19216000       0.95818810
   143  C          0.43627000       0.30784000       0.45818810
   144  C          0.56373000       0.80784000       0.04181190
   145  H          0.58070000       0.68400000       0.50310000
   146  H          0.41930000       0.18400000      -0.00310000
   147  H          0.41930000       0.31600000       0.49690000
   148  H          0.58070000       0.81600000       0.00310000
   149  C          0.56043000       0.55115000       0.57655180
   150  C          0.43957000       0.05115000       0.92344820
   151  C          0.43957000       0.44885000       0.42344820
   152  C          0.56043000       0.94885000       0.07655180
   153  H          0.57510000       0.44810000       0.56080000
   154  H          0.42490000       0.94810000       0.93920000
   155  H          0.42490000       0.55190000       0.43920000
   156  H          0.57510000       0.05190000       0.06080000
   157  C          0.54113000       0.00075000       0.52551180
   158  C          0.45887000       0.50075000       0.97448820
   159  C          0.45887000      -0.00075000       0.47448820
   160  C          0.54113000       0.49925000       0.02551180
   161  H          0.59770000       0.00650000       0.50780000
   162  H          0.40230000       0.50650000       0.99220000
   163  H          0.40230000      -0.00650000       0.49220000
   164  H          0.59770000       0.49350000       0.00780000
   165  H          0.53770000       0.09950000       0.55060000
   166  H          0.46230000       0.59950000       0.94940000
   167  H          0.46230000       0.90050000       0.44940000
   168  H          0.53770000       0.40050000       0.05060000
   169  B          0.53563000       0.38176000       0.67182000
   170  B          0.46437000       0.88176000       0.82818000
   171  B          0.46437000       0.61824000       0.32818000
   172  B          0.53563000       0.11824000       0.17182000
   173  Cl         0.78842110       0.82383000       0.55994800
   174  Cl         0.21157890       0.32383000       0.94005200
   175  Cl         0.21157890       0.17617000       0.44005200
   176  Cl         0.78842110       0.67617000       0.05994800
   177  Cl         0.97035110       0.77254000       0.65839800
   178  Cl         0.02964890       0.27254000       0.84160200
   179  Cl         0.02964890       0.22746000       0.34160200
   180  Cl         0.97035110       0.72746000       0.15839800
   181  C          0.79905000       0.67211200       0.62134000
   182  C          0.20095000       0.17211200       0.87866000
   183  C          0.20095000       0.32788800       0.37866000
   184  C          0.79905000       0.82788800       0.12134000
   185  H          0.78030000       0.72340000       0.65720000
   186  H          0.21970000       0.22340000       0.84280000
   187  H          0.21970000       0.27660000       0.34280000
   188  H          0.78030000       0.77660000       0.15720000
   189  H          0.75860000       0.57800000       0.60990000
   190  H          0.24140000       0.07800000       0.89010000
   191  H          0.24140000       0.42200000       0.39010000
   192  H          0.75860000       0.92200000       0.10990000
   193  C          0.89046000       0.61391100       0.63475000
   194  C          0.10954000       0.11391100       0.86525000
   195  C          0.10954000       0.38608900       0.36525000
   196  C          0.89046000       0.88608900       0.13475000
   197  H          0.90790000       0.56030000       0.59890000
   198  H          0.09210000       0.06030000       0.90110000
   199  H          0.09210000       0.43970000       0.40110000
   200  H          0.90790000       0.93970000       0.09890000
   201  H          0.89290000       0.52980000       0.66640000
   202  H          0.10710000       0.02980000       0.83360000
   203  H          0.10710000       0.47020000       0.33360000
   204  H          0.89290000       0.97020000       0.16640000
   205  Cl         0.30598110       0.83732000       0.02541800
   206  Cl         0.69401890       0.33732000       0.47458200
   207  Cl         0.69401890       0.16268000       0.97458200
   208  Cl         0.30598110       0.66268000       0.52541800
   209  Cl         0.07757120       0.79763000       0.00525100
   210  Cl         0.92242880       0.29763000       0.49474900
   211  Cl         0.92242880       0.20237000      -0.00525100
   212  Cl         0.07757120       0.70237000       0.50525100
   213  C          0.23454000       0.84379000       0.08253000
   214  C          0.76546000       0.34379000       0.41747000
   215  C          0.76546000       0.15621000       0.91747000
   216  C          0.23454000       0.65621000       0.58253000
   217  H          0.22490000       0.73040000       0.09630000
   218  H          0.77510000       0.23040000       0.40370000
   219  H          0.77510000       0.26960000       0.90370000
   220  H          0.22490000       0.76960000       0.59630000
   221  H          0.26470000       0.90680000       0.11680000
   222  H          0.73530000       0.40680000       0.38320000
   223  H          0.73530000       0.09320000       0.88320000
   224  H          0.26470000       0.59320000       0.61680000
   225  C          0.14444000       0.92151300       0.06134000
   226  C          0.85556000       0.42151300       0.43866000
   227  C          0.85556000       0.07848700       0.93866000
   228  C          0.14444000       0.57848700       0.56134000
   229  H          0.15400000       0.03130000       0.04460000
   230  H          0.84600000       0.53130000       0.45540000
   231  H          0.84600000       0.96870000       0.95540000
   232  H          0.15400000       0.46870000       0.54460000
   233  H          0.11100000       0.93640000       0.09570000
   234  H          0.88900000       0.43640000       0.40430000
   235  H          0.88900000       0.06360000       0.90430000
   236  H          0.11100000       0.56360000       0.59570000
