data_GAHFAX
_symmetry_space_group_name_H-M    'P1'
_symmetry_Int_Tables_number       1
loop_
_symmetry_equiv_pos_site_id
_symmetry_equiv_pos_as_xyz
1 x,y,z
_cell_length_a                   3.99227
_cell_length_b                   15.8233
_cell_length_c                   17.8923
_cell_angle_alpha                90.0
_cell_angle_beta                 92.3083
_cell_angle_gamma                90.0
loop_
_atom_site_label
_atom_site_type_symbol
_atom_site_fract_x
_atom_site_fract_y
_atom_site_fract_z
     1  O          0.44523000       0.36087600       0.43398500
     2  O          0.55477000       0.86087600       0.06601500
     3  O          0.55477000       0.63912400       0.56601500
     4  O          0.44523000       0.13912400       0.93398500
     5  O          0.15833000       0.44935600       0.35806600
     6  O          0.84167000       0.94935600       0.14193400
     7  O          0.84167000       0.55064400       0.64193400
     8  O          0.15833000       0.05064400       0.85806600
     9  C          0.32214000       0.43529800       0.41508800
    10  C          0.67786000       0.93529800       0.08491200
    11  C          0.67786000       0.56470200       0.58491200
    12  C          0.32214000       0.06470200       0.91508800
    13  C          0.39814000       0.50401900       0.47044800
    14  C          0.60186000       0.00401900       0.02955200
    15  C          0.60186000       0.49598100       0.52955200
    16  C          0.39814000      -0.00401900       0.97044800
    17  H          0.38650000       0.31691300       0.39311100
    18  H          0.61350000       0.81691300       0.10688900
    19  H          0.61350000       0.68308700       0.60688900
    20  H          0.38650000       0.18308700       0.89311100
    21  H          0.29240000       0.55901000       0.46098000
    22  H          0.70760000       0.05901000       0.03902000
    23  H          0.70760000       0.44099000       0.53902000
    24  H          0.29240000       0.94099000       0.96098000
    25  N          0.30943000       0.24380700       0.33193600
    26  N          0.69057000       0.74380700       0.16806400
    27  N          0.69057000       0.75619300       0.66806400
    28  N          0.30943000       0.25619300       0.83193600
    29  C          0.84986000       0.03970900       0.32595800
    30  C          0.15014000       0.53970900       0.17404200
    31  C          0.15014000       0.96029100       0.67404200
    32  C          0.84986000       0.46029100       0.82595800
    33  C          0.78226000       0.03242100       0.39940900
    34  C          0.21774000       0.53242100       0.10059100
    35  C          0.21774000       0.96757900       0.60059100
    36  C          0.78226000       0.46757900       0.89940900
    37  C          0.88436000       0.09629100       0.45082900
    38  C          0.11564000       0.59629100       0.04917100
    39  C          0.11564000       0.90370900       0.54917100
    40  C          0.88436000       0.40370900       0.95082900
    41  C          0.05154000       0.16586900       0.42857800
    42  C          0.94846000       0.66586900       0.07142200
    43  C          0.94846000       0.83413100       0.57142200
    44  C          0.05154000       0.33413100       0.92857800
    45  C          0.57854000       0.32391900       0.23810800
    46  C          0.42146000       0.82391900       0.26189200
    47  C          0.42146000       0.67608100       0.76189200
    48  C          0.57854000       0.17608100       0.73810800
    49  C          0.65794000       0.33390100       0.16546900
    50  C          0.34206000       0.83390100       0.33453100
    51  C          0.34206000       0.66609900       0.83453100
    52  C          0.65794000       0.16609900       0.66546900
    53  C          0.55344000       0.27484100       0.10970900
    54  C          0.44656000       0.77484100       0.39029100
    55  C          0.44656000       0.72515900       0.89029100
    56  C          0.55344000       0.22515900       0.60970900
    57  C          0.37264000       0.20594100       0.12821800
    58  C          0.62736000       0.70594100       0.37178200
    59  C          0.62736000       0.79405900       0.87178200
    60  C          0.37264000       0.29405900       0.62821800
    61  C          0.10714000       0.12166900       0.22583800
    62  C          0.89286000       0.62166900       0.27416200
    63  C          0.89286000       0.87833100       0.77416200
    64  C          0.10714000       0.37833100       0.72583800
    65  C          0.02883000       0.11119800       0.30005800
    66  C         -0.02883000       0.61119800       0.19994200
    67  C         -0.02883000       0.88880200       0.69994200
    68  C          0.02883000       0.38880200       0.80005800
    69  C          0.13423000       0.17549800       0.35249700
    70  C          0.86577000       0.67549800       0.14750300
    71  C          0.86577000       0.82450200       0.64750300
    72  C          0.13423000       0.32450200       0.85249700
    73  C          0.38723000       0.25268800       0.25966800
    74  C          0.61277000       0.75268800       0.24033200
    75  C          0.61277000       0.74731200       0.74033200
    76  C          0.38723000       0.24731200       0.75966800
    77  C          0.28493000       0.19204800       0.20371700
    78  C          0.71507000       0.69204800       0.29628300
    79  C          0.71507000       0.80795200       0.79628300
    80  C          0.28493000       0.30795200       0.70371700
    81  H          0.78060000      -0.00541000       0.28798000
    82  H          0.21940000       0.49459000       0.21202000
    83  H          0.21940000       0.00541000       0.71202000
    84  H          0.78060000       0.50541000       0.78798000
    85  H          0.66360000       0.98489000       0.41728000
    86  H          0.33640000       0.48489000       0.08272000
    87  H          0.33640000       0.01511000       0.58272000
    88  H          0.66360000       0.51511000       0.91728000
    89  H          0.83260000       0.09069000       0.50199000
    90  H          0.16740000       0.59069000      -0.00199000
    91  H          0.16740000       0.90931000       0.49801000
    92  H          0.83260000       0.40931000       0.00199000
    93  H          0.11940000       0.21111000       0.46388000
    94  H          0.88060000       0.71111000       0.03612000
    95  H          0.88060000       0.78889000       0.53612000
    96  H          0.11940000       0.28889000       0.96388000
    97  H          0.65240000       0.36459000       0.27578000
    98  H          0.34760000       0.86459000       0.22422000
    99  H          0.34760000       0.63541000       0.72422000
   100  H          0.65240000       0.13541000       0.77578000
   101  H          0.78940000       0.38371000       0.15158000
   102  H          0.21060000       0.88371000       0.34842000
   103  H          0.21060000       0.61629000       0.84842000
   104  H          0.78940000       0.11629000       0.65158000
   105  H          0.61740000       0.28401000       0.05769000
   106  H          0.38260000       0.78401000       0.44231000
   107  H          0.38260000       0.71599000       0.94231000
   108  H          0.61740000       0.21599000       0.55769000
   109  H          0.29040000       0.16041000       0.08998000
   110  H          0.70960000       0.66041000       0.41002000
   111  H          0.70960000       0.83959000       0.91002000
   112  H          0.29040000       0.33959000       0.58998000
   113  H          0.03440000       0.07621000       0.18998000
   114  H         -0.03440000       0.57621000       0.31002000
   115  H         -0.03440000       0.92379000       0.81002000
   116  H          0.03440000       0.42379000       0.68998000
