data_GAHFIF
_symmetry_space_group_name_H-M    'P1'
_symmetry_Int_Tables_number       1
loop_
_symmetry_equiv_pos_site_id
_symmetry_equiv_pos_as_xyz
1 x,y,z
_cell_length_a                   13.264318
_cell_length_b                   7.36901
_cell_length_c                   14.082118
_cell_angle_alpha                90.0
_cell_angle_beta                 104.4512
_cell_angle_gamma                90.0
loop_
_atom_site_label
_atom_site_type_symbol
_atom_site_fract_x
_atom_site_fract_y
_atom_site_fract_z
     1  O          0.85376800       0.91321830       0.01074100
     2  O          0.64623200       0.41321830       0.48925900
     3  O          0.14623200       0.08678170       0.98925900
     4  O          0.35376800       0.58678170       0.51074100
     5  H          0.80020000       0.97450000       0.01010000
     6  H          0.69980000       0.47450000       0.48990000
     7  H          0.19980000       0.02550000      -0.01010000
     8  H          0.30020000       0.52550000       0.51010000
     9  O          0.74433900       0.68129820       0.00330110
    10  O          0.75566100       0.18129820       0.49669890
    11  O          0.25566100       0.31870180      -0.00330110
    12  O          0.24433900       0.81870180       0.50330110
    13  C          0.83026130       0.74038000       0.00576120
    14  C          0.66973870       0.24038000       0.49423880
    15  C          0.16973870       0.25962000      -0.00576120
    16  C          0.33026130       0.75962000       0.50576120
    17  C          0.91935110       0.61848000       0.00308110
    18  C          0.58064890       0.11848000       0.49691890
    19  C          0.08064890       0.38152000      -0.00308110
    20  C          0.41935110       0.88152000       0.50308110
    21  C          0.01788120       0.68528000       0.00749120
    22  C          0.48211880       0.18528000       0.49250880
    23  C          0.98211880       0.31472000      -0.00749120
    24  C          0.51788120       0.81472000       0.50749120
    25  H          0.03050000       0.81220000       0.01300000
    26  H          0.46950000       0.31220000       0.48700000
    27  H          0.96950000       0.18780000       0.98700000
    28  H          0.53050000       0.68780000       0.51300000
    29  C          0.90213110       0.43258000      -0.00392120
    30  C          0.59786890       0.93258000       0.50392120
    31  C          0.09786890       0.56742000       0.00392120
    32  C          0.40213110       0.06742000       0.49607880
    33  H          0.83480000       0.38600000      -0.00630000
    34  H          0.66520000       0.88600000       0.50630000
    35  H          0.16520000       0.61400000       0.00630000
    36  H          0.33480000       0.11400000       0.49370000
    37  N          0.69106100       0.11412180       0.00336100
    38  N          0.80893900       0.61412180       0.49663900
    39  N          0.30893900       0.88587820      -0.00336100
    40  N          0.19106100       0.38587820       0.50336100
    41  C          0.50102150       0.18762000       0.15269140
    42  C         -0.00102150       0.68762000       0.34730860
    43  C          0.49897850       0.81238000       0.84730860
    44  C          0.00102150       0.31238000       0.65269140
    45  H          0.43410000       0.23840000       0.14780000
    46  H          0.06590000       0.73840000       0.35220000
    47  H          0.56590000       0.76160000       0.85220000
    48  H          0.93410000       0.26160000       0.64780000
    49  C          0.55295160       0.10913000       0.23733150
    50  C          0.94704840       0.60913000       0.26266850
    51  C          0.44704840       0.89087000       0.76266850
    52  C          0.05295160       0.39087000       0.73733150
    53  H          0.52250000       0.10610000       0.29170000
    54  H          0.97750000       0.60610000       0.20830000
    55  H          0.47750000       0.89390000       0.70830000
    56  H          0.02250000       0.39390000       0.79170000
    57  C          0.65216160       0.03153000       0.24585130
    58  C          0.84783840       0.53153000       0.25414870
    59  C          0.34783840       0.96847000       0.75414870
    60  C          0.15216160       0.46847000       0.74585130
    61  H          0.68790000       0.97770000       0.30620000
    62  H          0.81210000       0.47770000       0.19380000
    63  H          0.31210000       0.02230000       0.69380000
    64  H          0.18790000       0.52230000       0.80620000
    65  C          0.69728140       0.03243000       0.16927130
    66  C          0.80271860       0.53243000       0.33072870
    67  C          0.30271860       0.96757000       0.83072870
    68  C          0.19728140       0.46757000       0.66927130
    69  H          0.76360000       0.97800000       0.17600000
    70  H          0.73640000       0.47800000       0.32400000
    71  H          0.23640000       0.02200000       0.82400000
    72  H          0.26360000       0.52200000       0.67600000
    73  C          0.69107150       0.18983000       0.83864860
    74  C          0.80892850       0.68983000       0.66135140
    75  C          0.30892850       0.81017000       0.16135140
    76  C          0.19107150       0.31017000       0.33864860
    77  H          0.75650000       0.13170000       0.84610000
    78  H          0.74350000       0.63170000       0.65390000
    79  H          0.24350000       0.86830000       0.15390000
    80  H          0.25650000       0.36830000       0.34610000
    81  C          0.64405180       0.27143000       0.75225850
    82  C          0.85594820       0.77143000       0.74774150
    83  C          0.35594820       0.72857000       0.24774150
    84  C          0.14405180       0.22857000       0.25225850
    85  H          0.67780000       0.27100000       0.70010000
    86  H          0.82220000       0.77100000       0.79990000
    87  H          0.32220000       0.72900000       0.29990000
    88  H          0.17780000       0.22900000       0.20010000
    89  C          0.54596190       0.35663000       0.73852840
    90  C          0.95403810       0.85663000       0.76147160
    91  C          0.45403810       0.64337000       0.26147160
    92  C          0.04596190       0.14337000       0.23852840
    93  H          0.51440000       0.41270000       0.67760000
    94  H          0.98560000       0.91270000       0.82240000
    95  H          0.48560000       0.58730000       0.32240000
    96  H          0.01440000       0.08730000       0.17760000
    97  C          0.49686160       0.35852000       0.81220850
    98  C          0.00313840       0.85852000       0.68779150
    99  C          0.50313840       0.64148000       0.18779150
   100  C         -0.00313840       0.14148000       0.31220850
   101  H          0.43070000       0.41520000       0.80240000
   102  H          0.06930000       0.91520000       0.69760000
   103  H          0.56930000       0.58480000       0.19760000
   104  H          0.93070000       0.08480000       0.30240000
   105  C          0.49590130       0.27372000       0.98182860
   106  C          0.00409870       0.77372000       0.51817140
   107  C          0.50409870       0.72628000       0.01817140
   108  C         -0.00409870       0.22628000       0.48182860
   109  H          0.42890000       0.32600000       0.97400000
   110  H          0.07110000       0.82600000       0.52600000
   111  H          0.57110000       0.67400000       0.02600000
   112  H          0.92890000       0.17400000       0.47400000
   113  C          0.54559120       0.19502000       0.07063130
   114  C          0.95440880       0.69502000       0.42936870
   115  C          0.45440880       0.80498000       0.92936870
   116  C          0.04559120       0.30498000       0.57063130
   117  C          0.64521120       0.11482000       0.07902120
   118  C          0.85478880       0.61482000       0.42097880
   119  C          0.35478880       0.88518000       0.92097880
   120  C          0.14521120       0.38518000       0.57902120
   121  C          0.64212130       0.19192000       0.91780880
   122  C          0.85787870       0.69192000       0.58219120
   123  C          0.35787870       0.80808000       0.08219120
   124  C          0.14212130       0.30808000       0.41780880
   125  C          0.54335130       0.27682000       0.90381870
   126  C          0.95664870       0.77682000       0.59618130
   127  C          0.45664870       0.72318000       0.09618130
   128  C          0.04335130       0.22318000       0.40381870
