data_GALBIF
_symmetry_space_group_name_H-M    'P1'
_symmetry_Int_Tables_number       1
loop_
_symmetry_equiv_pos_site_id
_symmetry_equiv_pos_as_xyz
1 x,y,z
_cell_length_a                   4.7384
_cell_length_b                   8.9549
_cell_length_c                   9.0731
_cell_angle_alpha                108.334
_cell_angle_beta                 92.844
_cell_angle_gamma                99.984
loop_
_atom_site_label
_atom_site_type_symbol
_atom_site_fract_x
_atom_site_fract_y
_atom_site_fract_z
     1  N          0.20932000       0.67391140       0.24475140
     2  N          0.79068000       0.32608860       0.75524860
     3  N          0.57532000       0.56882130       0.52412130
     4  N          0.42468000       0.43117870       0.47587870
     5  C          0.04943000       0.52635170       0.20384160
     6  C          0.95057000       0.47364830       0.79615840
     7  H          0.08460000       0.44930000       0.11430000
     8  H          0.91540000       0.55070000       0.88570000
     9  C          0.83363000       0.48203160       0.28805150
    10  C          0.16637000       0.51796840       0.71194850
    11  H          0.72360000       0.37830000       0.25510000
    12  H          0.27640000       0.62170000       0.74490000
    13  C          0.78623000       0.59647150       0.42259140
    14  C          0.21377000       0.40352850       0.57740860
    15  C          0.95413000       0.74919170       0.46826170
    16  C          0.04587000       0.25080830       0.53173830
    17  H          0.92810000       0.82760000       0.55920000
    18  H          0.07190000       0.17240000       0.44080000
    19  C          0.16213000       0.78213170       0.37486180
    20  C          0.83787000       0.21786830       0.62513820
    21  H          0.27440000       0.88510000       0.40470000
    22  H          0.72560000       0.11490000       0.59530000
    23  O          0.59972000       0.73357110       0.05914130
    24  O          0.40028000       0.26642890       0.94085870
    25  H          0.49320000       0.72240000       0.12510000
    26  H          0.50680000       0.27760000       0.87490000
    27  O          0.66303000      -0.00880870       0.20257140
    28  O          0.33697000       0.00880870       0.79742860
    29  C          0.71973000       0.88604160       0.09423160
    30  C          0.28027000       0.11395840       0.90576840
    31  C          0.93233000       0.91278160       0.98322820
    32  C          0.06767000       0.08721840       0.01677180
    33  H          0.83510000       0.87000000       0.87760000
    34  H          0.16490000       0.13000000       0.12240000
    35  H          0.08350000       0.85360000      -0.01150000
    36  H          0.91650000       0.14640000       0.01150000
