data_GANXIG
_symmetry_space_group_name_H-M    'P1'
_symmetry_Int_Tables_number       1
loop_
_symmetry_equiv_pos_site_id
_symmetry_equiv_pos_as_xyz
1 x,y,z
_cell_length_a                   10.28623
_cell_length_b                   8.99413
_cell_length_c                   14.85115
_cell_angle_alpha                90.0
_cell_angle_beta                 93.250514
_cell_angle_gamma                90.0
loop_
_atom_site_label
_atom_site_type_symbol
_atom_site_fract_x
_atom_site_fract_y
_atom_site_fract_z
     1  O          0.32659800       0.21041100       0.58183600
     2  O          0.17340200       0.71041100       0.91816400
     3  O          0.67340200       0.78958900       0.41816400
     4  O          0.82659800       0.28958900       0.08183600
     5  O          0.36171800       0.08767900       0.45180600
     6  O          0.13828200       0.58767900       0.04819400
     7  O          0.63828200       0.91232100       0.54819400
     8  O          0.86171800       0.41232100       0.95180600
     9  N          0.40090900       0.19507100       0.51989600
    10  N          0.09909100       0.69507100       0.98010400
    11  N          0.59909100       0.80492900       0.48010400
    12  N          0.90090900       0.30492900       0.01989600
    13  N          0.45614900       0.08577100       0.38876700
    14  N          0.04385100       0.58577100       0.11123300
    15  N          0.54385100       0.91422900       0.61123300
    16  N          0.95614900       0.41422900       0.88876700
    17  N          0.65693800       0.20385100       0.37097600
    18  N          0.84306200       0.70385100       0.12902400
    19  N          0.34306200       0.79614900       0.62902400
    20  N          0.15693800       0.29614900       0.87097600
    21  N          0.66273800       0.11917100       0.29301600
    22  N          0.83726200       0.61917100       0.20698400
    23  N          0.33726200       0.88082900       0.70698400
    24  N          0.16273800       0.38082900       0.79301600
    25  N          0.58593900       0.14402110       0.21673600
    26  N          0.91406100       0.64402110       0.28326400
    27  N          0.41406100       0.85597890       0.78326400
    28  N          0.08593900       0.35597890       0.71673600
    29  N          0.62075900       0.04621110       0.15919600
    30  N          0.87924100       0.54621110       0.34080400
    31  N          0.37924100       0.95378890       0.84080400
    32  N          0.12075900       0.45378890       0.65919600
    33  N          0.71898900       0.95771900       0.19640600
    34  N          0.78101100       0.45771900       0.30359400
    35  N          0.28101100       0.04228100       0.80359400
    36  N          0.21898900       0.54228100       0.69640600
    37  C          0.51480900       0.25438110       0.49961700
    38  C          0.98519100       0.75438110       0.00038300
    39  C          0.48519100       0.74561890       0.50038300
    40  C          0.01480900       0.24561890      -0.00038300
    41  C          0.54412100       0.18263110       0.41686700
    42  C          0.95587900       0.68263110       0.08313300
    43  C          0.45587900       0.81736890       0.58313300
    44  C          0.04412100       0.31736890       0.91686700
    45  C          0.74307100       0.00581120       0.27930700
    46  C          0.75692900       0.50581120       0.22069300
    47  C          0.25692900      -0.00581120       0.72069300
    48  C          0.24307100       0.49418880       0.77930700
    49  C          0.58476100       0.36363110       0.55685600
    50  C          0.91523900       0.86363110       0.94314400
    51  C          0.41523900       0.63636890       0.44314400
    52  C          0.08476100       0.13636890       0.05685600
    53  C          0.52914110       0.42554120       0.63278700
    54  C          0.97085890       0.92554120       0.86721300
    55  C          0.47085890       0.57445880       0.36721300
    56  C          0.02914110       0.07445880       0.13278700
    57  C          0.59795120       0.52846130       0.68586700
    58  C          0.90204880       0.02846130       0.81413300
    59  C          0.40204880       0.47153870       0.31413300
    60  C          0.09795120       0.97153870       0.18586700
    61  C          0.72280110       0.57423120       0.66713700
    62  C          0.77719890       0.07423120       0.83286300
    63  C          0.27719890       0.42576880       0.33286300
    64  C          0.22280110       0.92576880       0.16713700
    65  C          0.77793110       0.51260130       0.59167700
    66  C          0.72206890       0.01260130       0.90832300
    67  C          0.22206890       0.48739870       0.40832300
    68  C          0.27793110      -0.01260130       0.09167700
    69  C          0.71061100       0.40955120       0.53763700
    70  C          0.78938900       0.90955120       0.96236300
    71  C          0.28938900       0.59044880       0.46236300
    72  C          0.21061100       0.09044880       0.03763700
    73  C          0.79710140       0.68394150       0.72692900
    74  C          0.70289860       0.18394150       0.77307100
    75  C          0.20289860       0.31605850       0.27307100
    76  C          0.29710140       0.81605850       0.22692900
    77  H          0.83989800       0.75685600       0.68949600
    78  H          0.66010200       0.25685600       0.81050400
    79  H          0.16010200       0.24314400       0.31050400
    80  H          0.33989800       0.74314400       0.18949600
    81  H          0.86295400       0.63112900       0.76496800
    82  H          0.63704600       0.13112900       0.73503200
    83  H          0.13704600       0.36887100       0.23503200
    84  H          0.36295400       0.86887100       0.26496800
    85  H          0.73679200       0.73522200       0.76517600
    86  H          0.76320800       0.23522200       0.73482400
    87  H          0.26320800       0.26477800       0.23482400
    88  H          0.23679200       0.76477800       0.26517600
    89  H          0.44191400       0.39411700       0.64851000
    90  H          0.05808600       0.89411700       0.85149000
    91  H          0.55808600       0.60588300       0.35149000
    92  H          0.94191400       0.10588300       0.14851000
    93  H          0.80671500       0.96938200       0.32631100
    94  H          0.69328500       0.46938200       0.17368900
    95  H          0.19328500       0.03061800       0.67368900
    96  H          0.30671500       0.53061800       0.82631100
    97  H          0.86371500       0.54261700       0.57661000
    98  H          0.63628500       0.04261700       0.92339000
    99  H          0.13628500       0.45738300       0.42339000
   100  H          0.36371500       0.95738300       0.07661000
   101  H          0.75371300       0.36681600       0.48469000
   102  H          0.74628700       0.86681600       0.01531000
   103  H          0.24628700       0.63318400       0.51531000
   104  H          0.25371300       0.13318400       0.98469000
   105  H          0.55821500       0.56721800       0.73921100
   106  H          0.94178500       0.06721800       0.76078900
   107  H          0.44178500       0.43278200       0.26078900
   108  H          0.05821500       0.93278200       0.23921100
   109  H          0.68521500       0.29971800       0.36221000
   110  H          0.81478500       0.79971800       0.13779000
   111  H          0.31478500       0.70028200       0.63779000
   112  H          0.18521500       0.20028200       0.86221000
   113  O         -0.00485100       0.01148110       0.40511600
   114  O          0.50485100       0.51148110       0.09488400
   115  O          0.00485100      -0.01148110       0.59488400
   116  O          0.49514900       0.48851890       0.90511600
   117  C          0.05948120       0.88920860       0.45064800
   118  C          0.44051880       0.38920860       0.04935200
   119  C          0.94051880       0.11079140       0.54935200
   120  C          0.55948120       0.61079140       0.95064800
   121  C          0.00205110       0.14094140       0.46132900
   122  C          0.49794890       0.64094140       0.03867100
   123  C         -0.00205110       0.85905860       0.53867100
   124  C          0.50205110       0.35905860       0.96132900
   125  H          0.15321400       0.90838200       0.46891000
   126  H          0.34678600       0.40838200       0.03109000
   127  H          0.84678600       0.09161800       0.53109000
   128  H          0.65321400       0.59161800       0.96891000
   129  H          0.95301500       0.22051800       0.42511100
   130  H          0.54698500       0.72051800       0.07488900
   131  H          0.04698500       0.77948200       0.57488900
   132  H          0.45301500       0.27948200       0.92511100
   133  H          0.09221500       0.17081900       0.46981100
   134  H          0.40778500       0.67081900       0.03018900
   135  H          0.90778500       0.82918100       0.53018900
   136  H          0.59221500       0.32918100       0.96981100
   137  H          0.04831400       0.80518300       0.41231000
   138  H          0.45168600       0.30518300       0.08769000
   139  H          0.95168600       0.19481700       0.58769000
   140  H          0.54831400       0.69481700       0.91231000
