data_GANZEE
_symmetry_space_group_name_H-M    'P1'
_symmetry_Int_Tables_number       1
loop_
_symmetry_equiv_pos_site_id
_symmetry_equiv_pos_as_xyz
1 x,y,z
_cell_length_a                   16.3226
_cell_length_b                   4.0323
_cell_length_c                   20.1339
_cell_angle_alpha                90.0
_cell_angle_beta                 110.235
_cell_angle_gamma                90.0
loop_
_atom_site_label
_atom_site_type_symbol
_atom_site_fract_x
_atom_site_fract_y
_atom_site_fract_z
     1  C          0.64083000       0.04821100       0.86272000
     2  C          0.35917000       0.54821100       0.63728000
     3  C          0.35917000       0.95178900       0.13728000
     4  C          0.64083000       0.45178900       0.36272000
     5  C          0.64403000       0.87698800       0.92352000
     6  C          0.35597000       0.37698800       0.57648000
     7  C          0.35597000       0.12301200       0.07648000
     8  C          0.64403000       0.62301200       0.42352000
     9  H          0.59350000       0.84940000       0.93440000
    10  H          0.40650000       0.34940000       0.56560000
    11  H          0.40650000       0.15060000       0.06560000
    12  H          0.59350000       0.65060000       0.43440000
    13  C          0.71934000       0.75278700       0.96602000
    14  C          0.28066000       0.25278700       0.53398000
    15  C          0.28066000       0.24721300       0.03398000
    16  C          0.71934000       0.74721300       0.46602000
    17  H          0.72080000       0.63890000       0.00660000
    18  H          0.27920000       0.13890000       0.49340000
    19  H          0.27920000       0.36110000      -0.00660000
    20  H          0.72080000       0.86110000       0.50660000
    21  C          0.79513000       0.78968600       0.95103000
    22  C          0.20487000       0.28968600       0.54897000
    23  C          0.20487000       0.21031400       0.04897000
    24  C          0.79513000       0.71031400       0.45103000
    25  H          0.84790000       0.70410000       0.98090000
    26  H          0.15210000       0.20410000       0.51910000
    27  H          0.15210000       0.29590000       0.01910000
    28  H          0.84790000       0.79590000       0.48090000
    29  C          0.78983000       0.95188700       0.89253000
    30  C          0.21017000       0.45188700       0.60747000
    31  C          0.21017000       0.04811300       0.10747000
    32  C          0.78983000       0.54811300       0.39253000
    33  H          0.84000000      -0.01940000       0.88120000
    34  H          0.16000000       0.48060000       0.61880000
    35  H          0.16000000       0.01940000       0.11880000
    36  H          0.84000000       0.51940000       0.38120000
    37  N          0.71482000       0.07449000       0.84949170
    38  N          0.28518000       0.57449000       0.65050830
    39  N          0.28518000       0.92551000       0.15050830
    40  N          0.71482000       0.42551000       0.34949170
    41  H          0.71410000       0.17460000       0.81160000
    42  H          0.28590000       0.67460000       0.68840000
    43  H          0.28590000       0.82540000       0.18840000
    44  H          0.71410000       0.32540000       0.31160000
    45  N          0.57042000       0.17821100       0.81836180
    46  N          0.42958000       0.67821100       0.68163820
    47  N          0.42958000       0.82178900       0.18163820
    48  N          0.57042000       0.32178900       0.31836180
    49  H          0.57230000       0.27880000       0.78120000
    50  H          0.42770000       0.77880000       0.71880000
    51  H          0.42770000       0.72120000       0.21880000
    52  H          0.57230000       0.22120000       0.28120000
    53  H          0.52190000       0.16370000       0.82610000
    54  H          0.47810000       0.66370000       0.67390000
    55  H          0.47810000       0.83630000       0.17390000
    56  H          0.52190000       0.33630000       0.32610000
    57  C          0.66953000       0.51121100       0.69632000
    58  C          0.33047000       0.01121100       0.80368000
    59  C          0.33047000       0.48878900       0.30368000
    60  C          0.66953000      -0.01121100       0.19632000
    61  C          0.67233000       0.64221200       0.62852000
    62  C          0.32767000       0.14221200       0.87148000
    63  C          0.32767000       0.35778800       0.37148000
    64  C          0.67233000       0.85778800       0.12852000
    65  H          0.72110000       0.62470000       0.61490000
    66  H          0.27890000       0.12470000       0.88510000
    67  H          0.27890000       0.37530000       0.38510000
    68  H          0.72110000       0.87530000       0.11490000
    69  O          0.73810190       0.36679000       0.73395150
    70  O          0.26189810       0.86679000       0.76604850
    71  O          0.26189810       0.63321000       0.26604850
    72  O          0.73810190       0.13321000       0.23395150
    73  O          0.60530190       0.54041000       0.71270160
    74  O          0.39469810       0.04041000       0.78729840
    75  O          0.39469810       0.45959000       0.28729840
    76  O          0.60530190       0.95959000       0.21270160
    77  Cl         0.57522700       0.83304000       0.57619600
    78  Cl         0.42477300       0.33304000       0.92380400
    79  Cl         0.42477300       0.16696000       0.42380400
    80  Cl         0.57522700       0.66696000       0.07619600
    81  C          0.88693000       0.28151100       0.65782000
    82  C          0.11307000       0.78151100       0.84218000
    83  C          0.11307000       0.71848900       0.34218000
    84  C          0.88693000       0.21848900       0.15782000
    85  C          0.97403000       0.35781300       0.65372000
    86  C          0.02597000       0.85781300       0.84628000
    87  C          0.02597000       0.64218700       0.34628000
    88  C          0.97403000       0.14218700       0.15372000
    89  H          0.01580000       0.48540000       0.68710000
    90  H          0.98420000      -0.01460000       0.81290000
    91  H          0.98420000       0.51460000       0.31290000
    92  H          0.01580000       0.01460000       0.18710000
    93  O          0.83122000       0.13591000       0.61450190
    94  O          0.16878000       0.63591000       0.88549810
    95  O          0.16878000       0.86409000       0.38549810
    96  O          0.83122000       0.36409000       0.11450190
    97  O          0.88122180       0.40489000       0.71519160
    98  O          0.11877820       0.90489000       0.78480840
    99  O          0.11877820       0.59511000       0.28480840
   100  O          0.88122180       0.09511000       0.21519160
   101  H          0.83180000       0.37560000       0.71580000
   102  H          0.16820000       0.87560000       0.78420000
   103  H          0.16820000       0.62440000       0.28420000
   104  H          0.83180000       0.12440000       0.21580000
   105  Cl        -0.00988200       0.18604000       0.58061700
   106  Cl         0.00988200       0.68604000       0.91938300
   107  Cl         0.00988200       0.81396000       0.41938300
   108  Cl        -0.00988200       0.31396000       0.08061700
