data_GAPPUK
_symmetry_space_group_name_H-M    'P1'
_symmetry_Int_Tables_number       1
loop_
_symmetry_equiv_pos_site_id
_symmetry_equiv_pos_as_xyz
1 x,y,z
_cell_length_a                   7.304112
_cell_length_b                   9.395216
_cell_length_c                   9.685016
_cell_angle_alpha                83.8132
_cell_angle_beta                 88.1722
_cell_angle_gamma                89.0332
loop_
_atom_site_label
_atom_site_type_symbol
_atom_site_fract_x
_atom_site_fract_y
_atom_site_fract_z
     1  Cl         0.45451900       0.28014800       0.85154700
     2  Cl         0.54548100       0.71985200       0.14845300
     3  C          0.91807000       0.41572000       0.65772000
     4  C          0.08193000       0.58428000       0.34228000
     5  C          0.00223000       0.50483000       0.74153000
     6  C         -0.00223000       0.49517000       0.25847000
     7  H          0.94840000       0.59220000       0.75730000
     8  H          0.05160000       0.40780000       0.24270000
     9  C          0.16463000       0.46273000       0.80063000
    10  C          0.83537000       0.53727000       0.19937000
    11  C          0.25063000       0.33223000       0.77882000
    12  C          0.74937000       0.66777000       0.22118000
    13  C          0.16683000       0.24802000       0.69363000
    14  C          0.83317000       0.75198000       0.30637000
    15  C         -0.00073000       0.28512000       0.63122000
    16  C          0.00073000       0.71488000       0.36878000
    17  C          0.77117000       0.23223000       0.49483000
    18  C          0.22883000       0.76777000       0.50517000
    19  H          0.71770000       0.17140000       0.43850000
    20  H          0.28230000       0.82860000       0.56150000
    21  C          0.74267000       0.45553000       0.59442000
    22  C          0.25733000       0.54447000       0.40558000
    23  N          0.24883000       0.55893000       0.88993000
    24  N          0.75117000       0.44107000       0.11007000
    25  N          0.25363000       0.11152000       0.66522000
    26  N          0.74637000       0.88848000       0.33478000
    27  N          0.92597000       0.19272000       0.54682000
    28  N          0.07403000       0.80728000       0.45318000
    29  N          0.67947000       0.35522000       0.51552000
    30  N          0.32053000       0.64478000       0.48448000
    31  H          0.57580000       0.37120000       0.47680000
    32  H          0.42420000       0.62880000       0.52320000
    33  O          0.65798000       0.56686180       0.60852000
    34  O          0.34202000       0.43313820       0.39148000
    35  O          0.30304000       0.67073000       0.83733000
    36  O          0.69696000       0.32927000       0.16267000
    37  O          0.25654000       0.51914000       0.01093000
    38  O          0.74346000       0.48086000      -0.01093000
    39  O          0.36433000       0.11362000       0.56932000
    40  O          0.63567000       0.88638000       0.43068000
    41  O          0.20933000       0.00522000       0.73892000
    42  O          0.79067000      -0.00522000       0.26108000
    43  C          0.68825000       0.88794000       0.78164000
    44  C          0.31175000       0.11206000       0.21836000
    45  H          0.72940000       0.91900000       0.68830000
    46  H          0.27060000       0.08100000       0.31170000
    47  H          0.56960000       0.92910000       0.79900000
    48  H          0.43040000       0.07090000       0.20100000
    49  H          0.68070000       0.78540000       0.79360000
    50  H          0.31930000       0.21460000       0.20640000
    51  C          0.81974000       0.93483000       0.88063000
    52  C          0.18026000       0.06517000       0.11937000
    53  O          0.81573000       0.06672000       0.89982000
    54  O          0.18427000       0.93328000       0.10018000
    55  H          0.90960000       0.08940000       0.93680000
    56  H          0.09040000       0.91060000       0.06320000
    57  O          0.92823000       0.84522000       0.94012000
    58  O          0.07177000       0.15478000       0.05988000
