data_GAPWID
_symmetry_space_group_name_H-M    'P1'
_symmetry_Int_Tables_number       1
loop_
_symmetry_equiv_pos_site_id
_symmetry_equiv_pos_as_xyz
1 x,y,z
_cell_length_a                   7.4223
_cell_length_b                   10.1473
_cell_length_c                   11.9468
_cell_angle_alpha                108.584
_cell_angle_beta                 94.876
_cell_angle_gamma                90.872
loop_
_atom_site_label
_atom_site_type_symbol
_atom_site_fract_x
_atom_site_fract_y
_atom_site_fract_z
     1  O          0.81626000       0.87177000       0.53842000
     2  O          0.18374000       0.12823000       0.46158000
     3  O          0.14004000       0.15553000       0.96013000
     4  O          0.85996000       0.84447000       0.03987000
     5  C          0.89555000       0.93816000       0.63463000
     6  C          0.10445000       0.06184000       0.36537000
     7  C          0.97425000       0.86596000       0.71533000
     8  C          0.02575000       0.13404000       0.28467000
     9  C          0.05605000       0.93786000       0.82053000
    10  C          0.94395000       0.06214000       0.17947000
    11  C          0.07115000       0.09044000       0.86003000
    12  C          0.92885000       0.90956000       0.13997000
    13  C         -0.00265000       0.16274000       0.77893000
    14  C          0.00265000       0.83726000       0.22107000
    15  C          0.91395000       0.09024000       0.67363000
    16  C          0.08605000       0.90976000       0.32637000
    17  H          0.96220000       0.76010000       0.69170000
    18  H          0.03780000       0.23990000       0.30830000
    19  H          0.10890000       0.88560000       0.87430000
    20  H          0.89110000       0.11440000       0.12570000
    21  H          0.00850000       0.26810000       0.80370000
    22  H         -0.00850000       0.73190000       0.19630000
    23  H          0.86230000       0.14170000       0.61940000
    24  H          0.13770000       0.85830000       0.38060000
    25  O          0.66186000       0.03663000       0.41092000
    26  O          0.33814000       0.96337000       0.58908000
    27  C          0.57705000       0.96626000       0.30143000
    28  C          0.42295000       0.03374000       0.69857000
    29  C          0.49995000       0.04844000       0.23703000
    30  C          0.50005000       0.95156000       0.76297000
    31  C          0.41605000       0.97896000       0.12513000
    32  C          0.58395000       0.02104000       0.87487000
    33  C          0.40745000       0.83586000       0.07823000
    34  C          0.59255000       0.16414000       0.92177000
    35  C          0.48425000       0.75686000       0.14423000
    36  C          0.51575000       0.24314000       0.85577000
    37  C          0.56875000       0.82366000       0.25683000
    38  C          0.43125000       0.17634000       0.74317000
    39  C          0.51304000       0.20344000       0.28814000
    40  C          0.48696000       0.79656000       0.71186000
    41  H          0.70700000      -0.01020000       0.45010000
    42  H          0.29300000       0.01020000       0.54990000
    43  H          0.35880000       0.03540000       0.07560000
    44  H          0.64120000       0.96460000       0.92440000
    45  H          0.34390000       0.78740000      -0.00260000
    46  H          0.65610000       0.21260000       0.00260000
    47  H          0.47890000       0.65130000       0.11140000
    48  H          0.52110000       0.34870000       0.88860000
    49  H          0.62750000       0.76620000       0.30460000
    50  H          0.37250000       0.23380000       0.69540000
    51  H          0.44990000       0.24770000       0.23030000
    52  H          0.55010000       0.75230000       0.76970000
    53  H          0.44860000       0.23530000       0.36290000
    54  H          0.55140000       0.76470000       0.63710000
    55  H          0.64040000       0.24060000       0.30670000
    56  H          0.35960000       0.75940000       0.69330000
    57  O          0.26864000       0.41593000       0.12322000
    58  O          0.73136000       0.58407000       0.87678000
    59  C          0.12395000       0.45654000       0.18953000
    60  C          0.87605000       0.54346000       0.81047000
    61  C          0.16125000       0.52923000       0.30993000
    62  C          0.83875000       0.47077000       0.69007000
    63  C          0.01565000       0.56934000       0.37623000
    64  C         -0.01565000       0.43066000       0.62377000
    65  C          0.83985000       0.53914000       0.32744000
    66  C          0.16015000       0.46086000       0.67256000
    67  C          0.80405000       0.46864000       0.20744000
    68  C          0.19595000       0.53136000       0.79256000
    69  C          0.94735000       0.42784000       0.13873000
    70  C          0.05265000       0.57216000       0.86127000
    71  C          0.35165000       0.56224000       0.36573000
    72  C          0.64835000       0.43776000       0.63427000
    73  H          0.22980000       0.33840000       0.05140000
    74  H          0.77020000       0.66160000       0.94860000
    75  H          0.04080000       0.62670000       0.46350000
    76  H          0.95920000       0.37330000       0.53650000
    77  H          0.73650000       0.56690000       0.37950000
    78  H          0.26350000       0.43310000       0.62050000
    79  H          0.67550000       0.44720000       0.16820000
    80  H          0.32450000       0.55280000       0.83180000
    81  H          0.92430000       0.37690000       0.04930000
    82  H          0.07570000       0.62310000       0.95070000
    83  H          0.35420000       0.61520000       0.45210000
    84  H          0.64580000       0.38480000       0.54790000
    85  H          0.41810000       0.47380000       0.35620000
    86  H          0.58190000       0.52620000       0.64380000
    87  H          0.41890000       0.62000000       0.32650000
    88  H          0.58110000       0.38000000       0.67350000
