data_GATZIM
_symmetry_space_group_name_H-M    'P1'
_symmetry_Int_Tables_number       1
loop_
_symmetry_equiv_pos_site_id
_symmetry_equiv_pos_as_xyz
1 x,y,z
_cell_length_a                   10.651012
_cell_length_b                   11.216012
_cell_length_c                   14.211515
_cell_angle_alpha                75.8865
_cell_angle_beta                 81.0665
_cell_angle_gamma                87.1015
loop_
_atom_site_label
_atom_site_type_symbol
_atom_site_fract_x
_atom_site_fract_y
_atom_site_fract_z
     1  C         -0.00173000       0.19063000       0.15792000
     2  C          0.00173000       0.80937000       0.84208000
     3  C          0.10623000       0.25723000       0.14612000
     4  C          0.89377000       0.74277000       0.85388000
     5  C          0.16763000       0.26193000       0.22442000
     6  C          0.83237000       0.73807000       0.77558000
     7  C          0.11684000       0.19533000       0.31742000
     8  C          0.88316000       0.80467000       0.68258000
     9  C          0.00873000       0.12863000       0.33092000
    10  C         -0.00873000       0.87137000       0.66908000
    11  C          0.94857000       0.12613000       0.25202000
    12  C          0.05143000       0.87387000       0.74798000
    13  H          0.97340000       0.22920000       0.03130000
    14  H          0.02660000       0.77080000       0.96870000
    15  H          0.29670000       0.35660000       0.15490000
    16  H          0.70330000       0.64340000       0.84510000
    17  H          0.13960000       0.30080000       0.08350000
    18  H          0.86040000       0.69920000       0.91650000
    19  H          0.97560000       0.08470000       0.39350000
    20  H          0.02440000       0.91530000       0.60650000
    21  O          0.93688000       0.18583000       0.08222160
    22  O          0.06312000       0.81417000       0.91777840
    23  O          0.27313000       0.32753000       0.21346170
    24  O          0.72687000       0.67247000       0.78653830
    25  Br         0.19960400       0.19399400       0.42661300
    26  Br         0.80039600       0.80600600       0.57338700
    27  Br         0.80000600       0.03207400       0.27165300
    28  Br         0.19999400       0.96792600       0.72834700
    29  C          0.07254000       0.24834000       0.83053000
    30  C          0.92746000       0.75166000       0.16947000
    31  C          0.10334000       0.30194000       0.73202000
    32  C          0.89666000       0.69806000       0.26798000
    33  C          0.10353000       0.42704000       0.69892000
    34  C          0.89647000       0.57296000       0.30108000
    35  C          0.07524000       0.49434000       0.76863000
    36  C          0.92476000       0.50566000       0.23137000
    37  C          0.04524000       0.43344000       0.86613000
    38  C          0.95476000       0.56656000       0.13387000
    39  C          0.13304000       0.48264000       0.59183000
    40  C          0.86696000       0.51736000       0.40817000
    41  C          0.13934000       0.59474000       0.54953000
    42  C          0.86066000       0.40526000       0.45047000
    43  C          0.16833000       0.65324000       0.44252000
    44  C          0.83167000       0.34676000       0.55748000
    45  C          0.20954000       0.58534000       0.37353000
    46  C          0.79046000       0.41466000       0.62647000
    47  C          0.23763000       0.64293000       0.27432000
    48  C          0.76237000       0.35707000       0.72568000
    49  C          0.22223000       0.76893000       0.24392000
    50  C          0.77777000       0.23107000       0.75608000
    51  C          0.18084000       0.83544000       0.31272000
    52  C          0.81916000       0.16456000       0.68728000
    53  C          0.15474000       0.77764000       0.41063000
    54  C          0.84526000       0.22236000       0.58937000
    55  C          0.24994000       0.82934000       0.13732000
    56  C          0.75006000       0.17066000       0.86268000
    57  C          0.22415000       0.00994000       0.01483000
    58  C          0.77585000       0.99006000       0.98517000
    59  H          0.07200000       0.16300000       0.85040000
    60  H          0.92800000       0.83700000       0.14960000
    61  H          0.12410000       0.25270000       0.68770000
    62  H          0.87590000       0.74730000       0.31230000
    63  H          0.07630000       0.57970000       0.75040000
    64  H          0.92370000       0.42030000       0.24960000
    65  H          0.02490000       0.48060000       0.91210000
    66  H          0.97510000       0.51940000       0.08790000
    67  H          0.14870000       0.42790000       0.55150000
    68  H          0.85130000       0.57210000       0.44850000
    69  H          0.12380000       0.64870000       0.59050000
    70  H          0.87620000       0.35130000       0.40950000
    71  H          0.21850000       0.50040000       0.39390000
    72  H          0.78150000       0.49960000       0.60610000
    73  H          0.26640000       0.59680000       0.22880000
    74  H          0.73360000       0.40320000       0.77120000
    75  H          0.17030000       0.92020000       0.29280000
    76  H          0.82970000       0.07980000       0.70720000
    77  H          0.12730000       0.82420000       0.45600000
    78  H          0.87270000       0.17580000       0.54400000
    79  H          0.31320000       0.01530000      -0.01020000
    80  H          0.68680000       0.98470000       0.01020000
    81  H          0.18810000       0.09110000       0.00880000
    82  H          0.81190000       0.90890000      -0.00880000
    83  H          0.18250000       0.96680000       0.97790000
    84  H          0.81750000       0.03320000       0.02210000
    85  N          0.04363000       0.31213000       0.89832000
    86  N          0.95637000       0.68787000       0.10168000
    87  O          0.30333000       0.77972000       0.07640170
    88  O          0.69667000       0.22028000       0.92359830
    89  O          0.20663000       0.94422000       0.11699160
    90  O          0.79337000       0.05578000       0.88300840
    91  C          0.41014000       0.37814000       0.94923000
    92  C          0.58986000       0.62186000       0.05077000
    93  C          0.43144000       0.44114000       0.85223000
    94  C          0.56856000       0.55886000       0.14777000
    95  C          0.38704000       0.56024000       0.82533000
    96  C          0.61296000       0.43976000       0.17467000
    97  C          0.32064000       0.60924000       0.89913000
    98  C          0.67936000       0.39076000       0.10087000
    99  C          0.30414000       0.53914000      -0.00677000
   100  C          0.69586000       0.46086000       0.00677000
   101  C          0.40324000       0.63885000       0.72563000
   102  C          0.59676000       0.36115000       0.27437000
   103  C          0.46904000       0.62005000       0.64963000
   104  C          0.53096000       0.37995000       0.35037000
   105  C          0.48354000       0.70194000       0.54893000
   106  C          0.51646000       0.29806000       0.45107000
   107  C          0.54814000       0.65774000       0.47443000
   108  C          0.45186000       0.34226000       0.52557000
   109  C          0.56004000       0.72694000       0.37873000
   110  C          0.43996000       0.27306000       0.62127000
   111  C          0.50714000       0.84314000       0.35552000
   112  C          0.49286000       0.15686000       0.64448000
   113  C          0.44434000       0.89104000       0.43113000
   114  C          0.55566000       0.10896000       0.56887000
   115  C          0.43255000       0.81895000       0.52743000
   116  C          0.56745000       0.18105000       0.47257000
   117  C          0.51784000       0.91204000       0.25163000
   118  C          0.48216000       0.08796000       0.74837000
   119  C          0.48055000       0.10355000       0.14443000
   120  C          0.51945000       0.89645000       0.85557000
   121  H          0.44180000       0.29810000       0.96600000
   122  H          0.55820000       0.70190000       0.03400000
   123  H          0.47540000       0.40350000       0.80510000
   124  H          0.52460000       0.59650000       0.19490000
   125  H          0.28760000       0.68880000       0.88480000
   126  H          0.71240000       0.31120000       0.11520000
   127  H          0.25950000       0.57400000       0.04170000
   128  H          0.74050000       0.42600000       0.95830000
   129  H          0.35820000       0.71300000       0.71770000
   130  H          0.64180000       0.28700000       0.28230000
   131  H          0.51440000       0.54610000       0.65680000
   132  H          0.48560000       0.45390000       0.34320000
   133  H          0.58500000       0.57960000       0.48780000
   134  H          0.41500000       0.42040000       0.51220000
   135  H          0.60470000       0.69440000       0.32890000
   136  H          0.39530000       0.30560000       0.67110000
   137  H          0.41020000       0.97030000       0.41810000
   138  H          0.58980000       0.02970000       0.58190000
   139  H          0.38920000       0.85080000       0.57810000
   140  H          0.61080000       0.14920000       0.42190000
   141  H          0.56770000       0.11610000       0.11500000
   142  H          0.43230000       0.88390000       0.88500000
   143  H          0.44040000       0.18130000       0.14740000
   144  H          0.55960000       0.81870000       0.85260000
   145  H          0.43730000       0.06460000       0.10560000
   146  H          0.56270000       0.93540000       0.89440000
   147  N          0.34673000       0.42553000       0.02012000
   148  N          0.65327000       0.57447000       0.97988000
   149  O          0.56343000       0.87063000       0.18402000
   150  O          0.43657000       0.12937000       0.81598000
   151  O          0.47463000       0.02573000       0.24252000
   152  O          0.52537000       0.97427000       0.75748000
