data_GAVHER
_symmetry_space_group_name_H-M    'P1'
_symmetry_Int_Tables_number       1
loop_
_symmetry_equiv_pos_site_id
_symmetry_equiv_pos_as_xyz
1 x,y,z
_cell_length_a                   10.578518
_cell_length_b                   3.74616
_cell_length_c                   20.0023
_cell_angle_alpha                90.0
_cell_angle_beta                 94.5873
_cell_angle_gamma                90.0
loop_
_atom_site_label
_atom_site_type_symbol
_atom_site_fract_x
_atom_site_fract_y
_atom_site_fract_z
     1  N          0.82075110       0.89574000       0.27104600
     2  N          0.17924890       0.39574000       0.22895400
     3  N          0.17924890       0.10426000       0.72895400
     4  N          0.82075110       0.60426000       0.77104600
     5  C          0.70122140       0.78034000       0.27066700
     6  C          0.29877860       0.28034000       0.22933300
     7  C          0.29877860       0.21966000       0.72933300
     8  C          0.70122140       0.71966000       0.77066700
     9  H          0.66680000       0.74160000       0.31250000
    10  H          0.33320000       0.24160000       0.18750000
    11  H          0.33320000       0.25840000       0.68750000
    12  H          0.66680000       0.75840000       0.81250000
    13  C          0.62479130       0.71424000       0.21249700
    14  C          0.37520870       0.21424000       0.28750300
    15  C          0.37520870       0.28576000       0.78750300
    16  C          0.62479130       0.78576000       0.71249700
    17  H          0.54040000       0.63120000       0.21490000
    18  H          0.45960000       0.13120000       0.28510000
    19  H          0.45960000       0.36880000       0.78510000
    20  H          0.54040000       0.86880000       0.71490000
    21  C          0.67245120       0.77014000       0.15093600
    22  C          0.32754880       0.27014000       0.34906400
    23  C          0.32754880       0.22986000       0.84906400
    24  C          0.67245120       0.72986000       0.65093600
    25  C          0.79641130       0.89064000       0.15063700
    26  C          0.20358870       0.39064000       0.34936300
    27  C          0.20358870       0.10936000       0.84936300
    28  C          0.79641130       0.60936000       0.65063700
    29  H          0.83300000       0.93310000       0.10950000
    30  H          0.16700000       0.43310000       0.39050000
    31  H          0.16700000       0.06690000       0.89050000
    32  H          0.83300000       0.56690000       0.60950000
    33  C          0.86592130       0.94804000       0.21147700
    34  C          0.13407870       0.44804000       0.28852300
    35  C          0.13407870       0.05196000       0.78852300
    36  C          0.86592130       0.55196000       0.71147700
    37  H          0.95080000       0.02930000       0.21060000
    38  H          0.04920000       0.52930000       0.28940000
    39  H          0.04920000      -0.02930000       0.78940000
    40  H          0.95080000       0.47070000       0.71060000
    41  C          0.58927130       0.68424000       0.08820700
    42  C          0.41072870       0.18424000       0.41179300
    43  C          0.41072870       0.31576000       0.91179300
    44  C          0.58927130       0.81576000       0.58820700
    45  O          0.48915900       0.51973000       0.09317500
    46  O          0.51084100       0.01973000       0.40682500
    47  O          0.51084100       0.48027000       0.90682500
    48  O          0.48915900      -0.01973000       0.59317500
    49  N          0.63022120       0.78824000       0.03055600
    50  N          0.36977880       0.28824000       0.46944400
    51  N          0.36977880       0.21176000       0.96944400
    52  N          0.63022120       0.71176000       0.53055600
    53  H          0.58931900       0.71350000       0.99179000
    54  H          0.41068100       0.21350000       0.50821000
    55  H          0.41068100       0.28650000       0.00821000
    56  H          0.58931900       0.78650000       0.49179000
    57  H          0.70351800       0.90450000       0.02969000
    58  H          0.29648200       0.40450000       0.47031000
    59  H          0.29648200       0.09550000       0.97031000
    60  H          0.70351800       0.59550000       0.52969000
    61  C          0.84255130       0.28714000       0.94629300
    62  C          0.15744870       0.78714000       0.55370700
    63  C          0.15744870       0.71286000       0.05370700
    64  C          0.84255130       0.21286000       0.44629300
    65  H          0.76740000       0.20350000       0.92210000
    66  H          0.23260000       0.70350000       0.57790000
    67  H          0.23260000       0.79650000       0.07790000
    68  H          0.76740000       0.29650000       0.42210000
    69  O          0.85676900       0.21643000       0.00663500
    70  O          0.14323100       0.71643000       0.49336500
    71  O          0.14323100       0.78357000      -0.00663500
    72  O          0.85676900       0.28357000       0.50663500
    73  N          0.92304120       0.46914000       0.91266400
    74  N          0.07695880      -0.03086000       0.58733600
    75  N          0.07695880       0.53086000       0.08733600
    76  N          0.92304120       0.03086000       0.41266400
    77  H          0.90451700       0.51250000       0.86749000
    78  H          0.09548300       0.01250000       0.63251000
    79  H          0.09548300       0.48750000       0.13251000
    80  H          0.90451700      -0.01250000       0.36749000
    81  H         -0.00168100       0.56160000       0.93549000
    82  H          0.00168100       0.06160000       0.56451000
    83  H          0.00168100       0.43840000       0.06451000
    84  H         -0.00168100       0.93840000       0.43549000
