data_GAXRUU
_symmetry_space_group_name_H-M    'P1'
_symmetry_Int_Tables_number       1
loop_
_symmetry_equiv_pos_site_id
_symmetry_equiv_pos_as_xyz
1 x,y,z
_cell_length_a                   5.92806
_cell_length_b                   18.4652
_cell_length_c                   14.2081
_cell_angle_alpha                90.0
_cell_angle_beta                 99.2595
_cell_angle_gamma                90.0
loop_
_atom_site_label
_atom_site_type_symbol
_atom_site_fract_x
_atom_site_fract_y
_atom_site_fract_z
     1  O          0.78922000       0.56887700       0.01128100
     2  O          0.71078000       0.06887700       0.48871900
     3  O          0.21078000       0.43112300       0.98871900
     4  O          0.28922000       0.93112300       0.51128100
     5  N          0.78643000       0.50402900       0.87468120
     6  N          0.71357000       0.00402900       0.62531880
     7  N          0.21357000       0.49597100       0.12531880
     8  N          0.28643000      -0.00402900       0.37468120
     9  C          0.70283000       0.55242100       0.92792140
    10  C          0.79717000       0.05242100       0.57207860
    11  C          0.29717000       0.44757900       0.07207860
    12  C          0.20283000       0.94757900       0.42792140
    13  C          0.48723000       0.58312100       0.87216150
    14  C          0.01277000       0.08312100       0.62783850
    15  C          0.51277000       0.41687900       0.12783850
    16  C         -0.01277000       0.91687900       0.37216150
    17  H          0.48550000       0.63550000       0.87740000
    18  H          0.01450000       0.13550000       0.62260000
    19  H          0.51450000       0.36450000       0.12260000
    20  H         -0.01450000       0.86450000       0.37740000
    21  H          0.35390000       0.56380000       0.89510000
    22  H          0.14610000       0.06380000       0.60490000
    23  H          0.64610000       0.43620000       0.10490000
    24  H          0.85390000       0.93620000       0.39510000
    25  C          0.48993000       0.55981100       0.76855140
    26  C          0.01007000       0.05981100       0.73144860
    27  C          0.51007000       0.44018900       0.23144860
    28  C         -0.01007000       0.94018900       0.26855140
    29  C          0.65053000       0.49327100       0.78088130
    30  C          0.84947000      -0.00672900       0.71911870
    31  C          0.34947000       0.50672900       0.21911870
    32  C          0.15053000       0.00672900       0.28088130
    33  H          0.56380000       0.44860000       0.77860000
    34  H          0.93620000       0.94860000       0.72140000
    35  H          0.43620000       0.55140000       0.22140000
    36  H          0.06380000       0.05140000       0.27860000
    37  H          0.74660000       0.49210000       0.73170000
    38  H          0.75340000       0.99210000       0.76830000
    39  H          0.25340000       0.50790000       0.26830000
    40  H          0.24660000       0.00790000       0.23170000
    41  C          0.25173000       0.54041130       0.71731150
    42  C          0.24827000       0.04041130       0.78268850
    43  C          0.74827000       0.45958870       0.28268850
    44  C          0.75173000       0.95958870       0.21731150
    45  H          0.19210000       0.50070000       0.75060000
    46  H          0.30790000       0.00070000       0.74940000
    47  H          0.80790000       0.49930000       0.24940000
    48  H          0.69210000      -0.00070000       0.25060000
    49  H          0.15140000       0.58170000       0.71930000
    50  H          0.34860000       0.08170000       0.78070000
    51  H          0.84860000       0.41830000       0.28070000
    52  H          0.65140000       0.91830000       0.21930000
    53  C          0.25054000       0.51880150       0.61429170
    54  C          0.24946000       0.01880150       0.88570830
    55  C          0.74946000       0.48119850       0.38570830
    56  C          0.75054000       0.98119850       0.11429170
    57  H          0.34150000       0.47540000       0.61180000
    58  H          0.15850000       0.97540000       0.88820000
    59  H          0.65850000       0.52460000       0.38820000
    60  H          0.84150000       0.02460000       0.11180000
    61  H          0.09530000       0.50820000       0.58410000
    62  H          0.40470000       0.00820000       0.91590000
    63  H          0.90470000       0.49180000       0.41590000
    64  H          0.59530000       0.99180000       0.08410000
    65  C          0.34695000       0.57945160       0.56126180
    66  C          0.15305000       0.07945160       0.93873820
    67  C          0.65305000       0.42054840       0.43873820
    68  C          0.84695000       0.92054840       0.06126180
    69  H          0.24680000       0.62120000       0.55870000
    70  H          0.25320000       0.12120000       0.94130000
    71  H          0.75320000       0.37880000       0.44130000
    72  H          0.74680000       0.87880000       0.05870000
    73  H          0.35170000       0.56410000       0.49630000
    74  H          0.14830000       0.06410000       0.00370000
    75  H          0.64830000       0.43590000       0.50370000
    76  H          0.85170000       0.93590000      -0.00370000
    77  C          0.58695000       0.60104130       0.60891170
    78  C          0.91305000       0.10104130       0.89108830
    79  C          0.41305000       0.39895870       0.39108830
    80  C          0.08695000       0.89895870       0.10891170
    81  H          0.69170000       0.56150000       0.60350000
    82  H          0.80830000       0.06150000       0.89650000
    83  H          0.30830000       0.43850000       0.39650000
    84  H          0.19170000       0.93850000       0.10350000
    85  H          0.63720000       0.64270000       0.57620000
    86  H          0.86280000       0.14270000       0.92380000
    87  H          0.36280000       0.35730000       0.42380000
    88  H          0.13720000       0.85730000       0.07620000
    89  C          0.59284000       0.61938110       0.71371160
    90  C          0.90716000       0.11938110       0.78628840
    91  C          0.40716000       0.38061890       0.28628840
    92  C          0.09284000       0.88061890       0.21371160
    93  H          0.50910000       0.66400000       0.71840000
    94  H         -0.00910000       0.16400000       0.78160000
    95  H          0.49090000       0.33600000       0.28160000
    96  H          0.00910000       0.83600000       0.21840000
    97  H          0.75000000       0.62750000       0.74320000
    98  H          0.75000000       0.12750000       0.75680000
    99  H          0.25000000       0.37250000       0.25680000
   100  H          0.25000000       0.87250000       0.24320000
   101  H          0.89440000       0.47881300       0.89411700
   102  H          0.60560000       0.97881300       0.60588300
   103  H          0.10560000       0.52118700       0.10588300
   104  H          0.39440000       0.02118700       0.39411700
   105  O          0.50282000       0.87550700       0.70756100
   106  O         -0.00282000       0.37550700       0.79243900
   107  O          0.49718000       0.12449300       0.29243900
   108  O          0.00282000       0.62449300       0.20756100
   109  O          0.14812000       0.84677700       0.63916100
   110  O          0.35188000       0.34677700       0.86083900
   111  O          0.85188000       0.15322300       0.36083900
   112  O          0.64812000       0.65322300       0.13916100
   113  H          0.18510000       0.87030000       0.59510000
   114  H          0.31490000       0.37030000       0.90490000
   115  H          0.81490000       0.12970000       0.40490000
   116  H          0.68510000       0.62970000       0.09510000
   117  N          0.16574000       0.69687100       0.04204140
   118  N          0.33426000       0.19687100       0.45795860
   119  N          0.83426000       0.30312900       0.95795860
   120  N          0.66574000       0.80312900       0.54204140
   121  C          0.32193000       0.84579900       0.71242140
   122  C          0.17807000       0.34579900       0.78757860
   123  C          0.67807000       0.15420100       0.28757860
   124  C          0.82193000       0.65420100       0.21242140
   125  C          0.27353000       0.80688900       0.79704130
   126  C          0.22647000       0.30688900       0.70295870
   127  C          0.72647000       0.19311100       0.20295870
   128  C          0.77353000       0.69311100       0.29704130
   129  C          0.06523000       0.77272110       0.80159140
   130  C          0.43477000       0.27272110       0.69840860
   131  C          0.93477000       0.22727890       0.19840860
   132  C          0.56523000       0.72727890       0.30159140
   133  H          0.94880000       0.77460000       0.74930000
   134  H          0.55120000       0.27460000       0.75070000
   135  H          0.05120000       0.22540000       0.25070000
   136  H          0.44880000       0.72540000       0.24930000
   137  C          0.03033000       0.73645110       0.88224150
   138  C          0.46967000       0.23645110       0.61775850
   139  C          0.96967000       0.26354890       0.11775850
   140  C          0.53033000       0.76354890       0.38224150
   141  H          0.89060000       0.71400000       0.88370000
   142  H          0.60940000       0.21400000       0.61630000
   143  H          0.10940000       0.28600000       0.11630000
   144  H          0.39060000       0.78600000       0.38370000
   145  C          0.20113000       0.73275100       0.96209140
   146  C          0.29887000       0.23275100       0.53790860
   147  C          0.79887000       0.26724900       0.03790860
   148  C          0.70113000       0.76724900       0.46209140
   149  C          0.40883000       0.76855100       0.95804140
   150  C          0.09117000       0.26855100       0.54195860
   151  C          0.59117000       0.23144900       0.04195860
   152  C          0.90883000       0.73144900       0.45804140
   153  H          0.52420000       0.76780000       0.01080000
   154  H         -0.02420000       0.26780000       0.48920000
   155  H          0.47580000       0.23220000       0.98920000
   156  H          0.02420000       0.73220000       0.51080000
   157  C          0.44253000       0.80441900       0.87734140
   158  C          0.05747000       0.30441900       0.62265860
   159  C          0.55747000       0.19558100       0.12265860
   160  C          0.94253000       0.69558100       0.37734140
   161  H          0.58120000       0.82760000       0.87600000
   162  H          0.91880000       0.32760000       0.62400000
   163  H          0.41880000       0.17240000       0.12400000
   164  H          0.08120000       0.67240000       0.37600000
   165  H          0.28050000       0.69201300       0.08271800
   166  H          0.21950000       0.19201300       0.41728200
   167  H          0.71950000       0.30798700       0.91728200
   168  H          0.78050000       0.80798700       0.58271800
   169  H          0.04840000       0.67031200       0.03641700
   170  H          0.45160000       0.17031200       0.46358300
   171  H          0.95160000       0.32968800       0.96358300
   172  H          0.54840000       0.82968800       0.53641700
