data_GEGSIV
_symmetry_space_group_name_H-M    'P1'
_symmetry_Int_Tables_number       1
loop_
_symmetry_equiv_pos_site_id
_symmetry_equiv_pos_as_xyz
1 x,y,z
_cell_length_a                   8.62044
_cell_length_b                   10.39085
_cell_length_c                   14.78846
_cell_angle_alpha                72.36001
_cell_angle_beta                 81.68401
_cell_angle_gamma                78.16201
loop_
_atom_site_label
_atom_site_type_symbol
_atom_site_fract_x
_atom_site_fract_y
_atom_site_fract_z
     1  C          0.09245150       0.37748130       0.26508900
     2  C          0.90754850       0.62251870       0.73491100
     3  C          0.14641160       0.28229140       0.21482100
     4  C          0.85358840       0.71770860       0.78517900
     5  C          0.11257160       0.14727140       0.25023100
     6  C          0.88742840       0.85272860       0.74976900
     7  H          0.15380000       0.08350000       0.21660000
     8  H          0.84620000       0.91650000       0.78340000
     9  C          0.01960160       0.11059140       0.33355100
    10  C          0.98039840       0.88940860       0.66644900
    11  H         -0.00350000       0.02220000       0.35560000
    12  H          0.00350000       0.97780000       0.64440000
    13  C          0.86071170       0.16842150       0.47345100
    14  C          0.13928830       0.83157850       0.52654900
    15  H          0.83380000       0.08130000       0.49490000
    16  H          0.16620000       0.91870000       0.50510000
    17  C          0.80595180       0.25917160       0.52595100
    18  C          0.19404820       0.74082840       0.47404900
    19  H          0.74350000       0.23350000       0.58310000
    20  H          0.25650000       0.76650000       0.41690000
    21  C          0.84479170       0.39207160       0.49291100
    22  C          0.15520830       0.60792840       0.50708900
    23  H          0.80730000       0.45380000       0.52860000
    24  H          0.19270000       0.54620000       0.47140000
    25  C          0.93711160       0.43149140       0.40897100
    26  C          0.06288840       0.56850860       0.59102900
    27  H          0.96100000       0.51970000       0.38840000
    28  H          0.03900000       0.48030000       0.61160000
    29  C         -0.00327850       0.33950130       0.35306900
    30  C          0.00327850       0.66049870       0.64693100
    31  C          0.95775160       0.20498140       0.38691900
    32  C          0.04224840       0.79501860       0.61308100
    33  O          0.23843130       0.31937110       0.13158800
    34  O          0.76156870       0.68062890       0.86841200
    35  C          0.13984150       0.51561130       0.22938900
    36  C          0.86015850       0.48438870       0.77061100
    37  C          0.04963160       0.62346140       0.16852100
    38  C          0.95036840       0.37653860       0.83147900
    39  C          0.09473170       0.75482140       0.13612100
    40  C          0.90526830       0.24517860       0.86387900
    41  H          0.03360000       0.82620000       0.09440000
    42  H          0.96640000       0.17380000       0.90560000
    43  C          0.22689170       0.77754140       0.16555100
    44  C          0.77310830       0.22245860       0.83444900
    45  H          0.25210000       0.86520000       0.14590000
    46  H          0.74790000       0.13480000       0.85410000
    47  C          0.47014180       0.68877150       0.25153110
    48  C          0.52985820       0.31122850       0.74846890
    49  H          0.49820000       0.77550000       0.23120000
    50  H          0.50180000       0.22450000       0.76880000
    51  C          0.56803190       0.58170170       0.30591120
    52  C          0.43196810       0.41829830       0.69408880
    53  H          0.66270000       0.59550000       0.32180000
    54  H          0.33730000       0.40450000       0.67820000
    55  C          0.52539180       0.45021160       0.33792110
    56  C          0.47460820       0.54978840       0.66207890
    57  H          0.59220000       0.37770000       0.37510000
    58  H          0.40780000       0.62230000       0.62490000
    59  C          0.38645170       0.42810140       0.31477100
    60  C          0.61354830       0.57189860       0.68522900
    61  H          0.35980000       0.34090000       0.33700000
    62  H          0.64020000       0.65910000       0.66300000
    63  C          0.28258150       0.53678130       0.25722900
    64  C          0.71741850       0.46321870       0.74277100
    65  C          0.32619160       0.66947140       0.22559900
    66  C          0.67380840       0.33052860       0.77440100
    67  O          0.91611120       0.60142110       0.14008800
    68  O          0.08388880       0.39857890       0.85991200
    69  H          0.23630000       0.26230000       0.09891700
    70  H          0.76370000       0.73770000       0.90108300
    71  H          0.87430000       0.67530000       0.10061800
    72  H          0.12570000       0.32470000       0.89938200
    73  N          0.28156140       0.81950880       0.89096200
    74  N          0.71843860       0.18049120       0.10903800
    75  C          0.38526160       0.80987850       0.95280900
    76  C          0.61473840       0.19012150       0.04719100
    77  H          0.40020000       0.88850000       0.96570000
    78  H          0.59980000       0.11150000       0.03430000
    79  C          0.46976160       0.68473850      -0.00265100
    80  C          0.53023840       0.31526150       0.00265100
    81  H          0.54000000       0.67920000       0.04110000
    82  H          0.46000000       0.32080000       0.95890000
    83  C          0.45158170       0.56725860       0.97787900
    84  C          0.54841830       0.43274140       0.02212100
    85  C          0.34113000       0.58029820       0.91406830
    86  C          0.65887000       0.41970180       0.08593170
    87  H          0.32380000       0.50310000       0.90020000
    88  H          0.67620000       0.49690000       0.09980000
    89  C          0.25783000       0.70705830       0.87167850
    90  C          0.74217000       0.29294170       0.12832150
    91  H          0.18430000       0.71520000       0.82920000
    92  H          0.81570000       0.28480000       0.17080000
    93  C          0.19899170       0.95666860       0.84036900
    94  C          0.80100830       0.04333140       0.15963100
    95  H          0.19310000       0.01890000       0.87860000
    96  H          0.80690000       0.98110000       0.12140000
    97  H          0.09110000       0.95050000       0.83280000
    98  H          0.90890000       0.04950000       0.16720000
    99  C          0.28204170       0.01443140       0.74343900
   100  C          0.71795830       0.98556860       0.25656100
   101  C          0.43646180       0.95966850       0.71544890
   102  C          0.56353820       0.04033150       0.28455110
   103  H          0.49200000       0.88320000       0.75650000
   104  H          0.50800000       0.11680000       0.24350000
   105  C          0.50752000       0.01946180       0.62611880
   106  C          0.49248000       0.98053820       0.37388120
   107  H          0.61090000       0.98310000       0.60780000
   108  H          0.38910000       0.01690000       0.39220000
   109  C          0.42562000       0.13271170       0.56408890
   110  C          0.57438000       0.86728830       0.43591110
   111  H          0.47360000       0.17190000       0.50430000
   112  H          0.52640000       0.82810000       0.49570000
   113  C          0.27182000       0.18737150       0.59154890
   114  C          0.72818000       0.81262850       0.40845110
   115  H          0.21620000       0.26310000       0.54990000
   116  H          0.78380000       0.73690000       0.45010000
   117  C          0.20067180       0.12936140       0.68085890
   118  C          0.79932820       0.87063860       0.31914110
   119  H          0.09800000       0.16730000       0.69930000
   120  H          0.90200000       0.83270000       0.30070000
   121  Cl         0.24003400       0.13207300       0.00661300
   122  Cl         0.75996600       0.86792700      -0.00661300
