data_GELQAS
_symmetry_space_group_name_H-M    'P1'
_symmetry_Int_Tables_number       1
loop_
_symmetry_equiv_pos_site_id
_symmetry_equiv_pos_as_xyz
1 x,y,z
_cell_length_a                   8.55093
_cell_length_b                   10.71434
_cell_length_c                   17.44766
_cell_angle_alpha                90.0
_cell_angle_beta                 97.1113
_cell_angle_gamma                90.0
loop_
_atom_site_label
_atom_site_type_symbol
_atom_site_fract_x
_atom_site_fract_y
_atom_site_fract_z
     1  S          0.39209100       0.09986700       0.59435400
     2  S          0.60790900       0.59986700       0.90564600
     3  S          0.60790900       0.90013300       0.40564600
     4  S          0.39209100       0.40013300       0.09435400
     5  O          0.17263000       0.61228170       0.44178110
     6  O          0.82737000       0.11228170       0.05821890
     7  O          0.82737000       0.38771830       0.55821890
     8  O          0.17263000       0.88771830       0.94178110
     9  O          0.00572000       0.33855170       0.37646100
    10  O         -0.00572000       0.83855170       0.12353900
    11  O         -0.00572000       0.66144830       0.62353900
    12  O          0.00572000       0.16144830       0.87646100
    13  N          0.17493000       0.49272000       0.55112120
    14  N          0.82507000      -0.00728000       0.94887880
    15  N          0.82507000       0.50728000       0.44887880
    16  N          0.17493000       0.00728000       0.05112120
    17  N          0.42993000       0.17252000       0.45228120
    18  N          0.57007000       0.67252000       0.04771880
    19  N          0.57007000       0.82748000       0.54771880
    20  N          0.42993000       0.32748000       0.95228120
    21  N          0.23633000       0.24702000       0.35109120
    22  N          0.76367000       0.74702000       0.14890880
    23  N          0.76367000       0.75298000       0.64890880
    24  N          0.23633000       0.25298000       0.85109120
    25  N          0.20643000       0.33673000       0.64641130
    26  N          0.79357000       0.83673000       0.85358870
    27  N          0.79357000       0.66327000       0.35358870
    28  N          0.20643000       0.16327000       0.14641130
    29  C          0.22083000       0.37422000       0.57567130
    30  C          0.77917000       0.87422000       0.92432870
    31  C          0.77917000       0.62578000       0.42432870
    32  C          0.22083000       0.12578000       0.07567130
    33  C          0.28333000       0.31182000       0.51695130
    34  C          0.71667000       0.81182000       0.98304870
    35  C          0.71667000       0.68818000       0.48304870
    36  C          0.28333000       0.18818000       0.01695130
    37  C          0.26683000       0.39522000       0.44642130
    38  C          0.73317000       0.89522000       0.05357870
    39  C          0.73317000       0.60478000       0.55357870
    40  C          0.26683000       0.10478000       0.94642130
    41  C          0.20203000       0.51512000       0.47637140
    42  C          0.79797000       0.01512000       0.02362860
    43  C          0.79797000       0.48488000       0.52362860
    44  C          0.20203000       0.98488000       0.97637140
    45  C          0.41753000       0.39022000       0.40816150
    46  C          0.58247000       0.89022000       0.09183850
    47  C          0.58247000       0.60978000       0.59183850
    48  C          0.41753000       0.10978000       0.90816150
    49  C          0.40343000       0.25162000       0.38268140
    50  C          0.59657000       0.75162000       0.11731860
    51  C          0.59657000       0.74838000       0.61731860
    52  C          0.40343000       0.24838000       0.88268140
    53  C          0.36683000       0.19922000       0.51760140
    54  C          0.63317000       0.69922000       0.98239860
    55  C          0.63317000       0.80078000       0.48239860
    56  C          0.36683000       0.30078000       0.01760140
    57  C          0.14943000       0.32742000       0.38660130
    58  C          0.85057000       0.82742000       0.11339870
    59  C          0.85057000       0.67258000       0.61339870
    60  C          0.14943000       0.17258000       0.88660130
    61  C          0.42464000       0.48253000       0.34255180
    62  C          0.57536000       0.98253000       0.15744820
    63  C          0.57536000       0.51747000       0.65744820
    64  C          0.42464000       0.01747000       0.84255180
    65  C          0.50934000       0.20833000       0.32512180
    66  C          0.49066000       0.70833000       0.17487820
    67  C          0.49066000       0.79167000       0.67487820
    68  C          0.50934000       0.29167000       0.82512180
    69  H          0.12240000       0.54430000       0.57881900
    70  H          0.87760000       0.04430000       0.92118100
    71  H          0.87760000       0.45570000       0.42118100
    72  H          0.12240000       0.95570000       0.07881900
    73  H          0.20340000       0.18530000       0.32581800
    74  H          0.79660000       0.68530000       0.17418200
    75  H          0.79660000       0.81470000       0.67418200
    76  H          0.20340000       0.31470000       0.82581800
    77  H          0.16240000       0.37830000       0.67720000
    78  H          0.83760000       0.87830000       0.82280000
    79  H          0.83760000       0.62170000       0.32280000
    80  H          0.16240000       0.12170000       0.17720000
    81  H          0.24640000       0.25940000       0.65720000
    82  H          0.75360000       0.75940000       0.84280000
    83  H          0.75360000       0.74060000       0.34280000
    84  H          0.24640000       0.24060000       0.15720000
    85  H          0.47240000       0.10330000       0.44801800
    86  H          0.52760000       0.60330000       0.05198200
    87  H          0.52760000       0.89670000       0.55198200
    88  H          0.47240000       0.39670000       0.94801800
    89  H          0.50930000       0.40120000       0.44591600
    90  H          0.49070000       0.90120000       0.05408400
    91  H          0.49070000       0.59880000       0.55408400
    92  H          0.50930000       0.09880000       0.94591600
    93  H          0.53040000       0.47130000       0.31691900
    94  H          0.46960000       0.97130000       0.18308100
    95  H          0.46960000       0.52870000       0.68308100
    96  H          0.53040000       0.02870000       0.81691900
    97  H          0.42540000       0.56740000       0.36720000
    98  H          0.57460000       0.06740000       0.13280000
    99  H          0.57460000       0.43260000       0.63280000
   100  H          0.42540000       0.93260000       0.86720000
   101  H          0.32940000       0.47030000       0.29920000
   102  H          0.67060000       0.97030000       0.20080000
   103  H          0.67060000       0.52970000       0.70080000
   104  H          0.32940000       0.02970000       0.79920000
   105  H          0.49540000       0.26240000       0.27420000
   106  H          0.50460000       0.76240000       0.22580000
   107  H          0.50460000       0.73760000       0.72580000
   108  H          0.49540000       0.23760000       0.77420000
   109  H          0.61650000       0.23040000       0.34920000
   110  H          0.38350000       0.73040000       0.15080000
   111  H          0.38350000       0.76960000       0.65080000
   112  H          0.61650000       0.26960000       0.84920000
   113  H          0.48750000       0.11440000       0.31520000
   114  H          0.51250000       0.61440000       0.18480000
   115  H          0.51250000       0.88560000       0.68480000
   116  H          0.48750000       0.38560000       0.81520000
   117  S          0.04498900       0.91826600       0.30589400
   118  S          0.95501100       0.41826600       0.19410600
   119  S          0.95501100       0.08173400       0.69410600
   120  S          0.04498900       0.58173400       0.80589400
   121  O          0.11243000       0.03352000       0.27312110
   122  O          0.88757000       0.53352000       0.22687890
   123  O          0.88757000       0.96648000       0.72687890
   124  O          0.11243000       0.46648000       0.77312110
   125  C          0.07806000       0.93534000       0.40843190
   126  C          0.92194000       0.43534000       0.09156810
   127  C          0.92194000       0.06466000       0.59156810
   128  C          0.07806000       0.56466000       0.90843190
   129  H          0.18780000       0.95090000       0.42420000
   130  H          0.81220000       0.45090000       0.07580000
   131  H          0.81220000       0.04910000       0.57580000
   132  H          0.18780000       0.54910000       0.92420000
   133  H          0.04710000       0.86010000       0.43240000
   134  H          0.95290000       0.36010000       0.06760000
   135  H          0.95290000       0.13990000       0.56760000
   136  H          0.04710000       0.63990000       0.93240000
   137  H          0.01690000       0.00400000       0.42370000
   138  H         -0.01690000       0.50400000       0.07630000
   139  H         -0.01690000      -0.00400000       0.57630000
   140  H          0.01690000       0.49600000       0.92370000
   141  C          0.18105000       0.79794000       0.29652000
   142  C          0.81895000       0.29794000       0.20348000
   143  C          0.81895000       0.20206000       0.70348000
   144  C          0.18105000       0.70206000       0.79652000
   145  H          0.17760000       0.77540000       0.24300000
   146  H          0.82240000       0.27540000       0.25700000
   147  H          0.82240000       0.22460000       0.75700000
   148  H          0.17760000       0.72460000       0.74300000
   149  H          0.15460000       0.72650000       0.32560000
   150  H          0.84540000       0.22650000       0.17440000
   151  H          0.84540000       0.27350000       0.67440000
   152  H          0.15460000       0.77350000       0.82560000
   153  H          0.28510000       0.82590000       0.31570000
   154  H          0.71490000       0.32590000       0.18430000
   155  H          0.71490000       0.17410000       0.68430000
   156  H          0.28510000       0.67410000       0.81570000
