data_GENLIV
_symmetry_space_group_name_H-M    'P1'
_symmetry_Int_Tables_number       1
loop_
_symmetry_equiv_pos_site_id
_symmetry_equiv_pos_as_xyz
1 x,y,z
_cell_length_a                   3.74401
_cell_length_b                   6.03201
_cell_length_c                   18.6312
_cell_angle_alpha                97.6601
_cell_angle_beta                 92.2801
_cell_angle_gamma                90.4701
loop_
_atom_site_label
_atom_site_type_symbol
_atom_site_fract_x
_atom_site_fract_y
_atom_site_fract_z
     1  Cl         0.63432000       0.30966100       0.05292300
     2  Cl         0.36568000       0.69033900       0.94707700
     3  N          0.00335000      -0.00713000       0.38115900
     4  N         -0.00335000       0.00713000       0.61884100
     5  H          0.07005000       0.93287000       0.41999900
     6  H          0.92995000       0.06713000       0.58000100
     7  H          0.88755000       0.12013000       0.38562900
     8  H          0.11245000       0.87987000       0.61437100
     9  C         -0.03565000      -0.00113000       0.25167100
    10  C          0.03565000       0.00113000       0.74832900
    11  O          0.24144000       0.71108000       0.30818700
    12  O          0.75856000       0.28892000       0.69181300
    13  C          0.81625000       0.21183000       0.25769110
    14  C          0.18375000       0.78817000       0.74230890
    15  H          0.78535000       0.29233000       0.30439110
    16  H          0.21465000       0.70767000       0.69560890
    17  C          0.71395000       0.30723000       0.19693120
    18  C          0.28605000       0.69277000       0.80306880
    19  H          0.61225000       0.45193000       0.20144120
    20  H          0.38775000       0.54807000       0.79855880
    21  C          0.76185000       0.18883000       0.12957110
    22  C          0.23815000       0.81117000       0.87042890
    23  C          0.90785000      -0.02303000       0.12129110
    24  C          0.09215000       0.02303000       0.87870890
    25  H          0.93805000       0.89777000       0.07438110
    26  H          0.06195000       0.10223000       0.92561890
    27  C          0.00885000       0.88277000       0.18289110
    28  C         -0.00885000       0.11723000       0.81710890
    29  H          0.10945000       0.73777000       0.17811110
    30  H          0.89055000       0.26223000       0.82188890
    31  C          0.07655000       0.89277000       0.31649110
    32  C          0.92345000       0.10723000       0.68350890
    33  O          0.48514000       0.50328000       0.40646800
    34  O          0.51486000       0.49672000       0.59353200
    35  H          0.37236200       0.60145800       0.37371400
    36  H          0.62763800       0.39854200       0.62628600
    37  O          0.24204000       0.73537000       0.49425800
    38  O          0.75796000       0.26463000       0.50574200
    39  C          0.41785000       0.57357000       0.47318110
    40  C          0.58215000       0.42643000       0.52681890
