data_GEPFIR
_symmetry_space_group_name_H-M    'P1'
_symmetry_Int_Tables_number       1
loop_
_symmetry_equiv_pos_site_id
_symmetry_equiv_pos_as_xyz
1 x,y,z
_cell_length_a                   8.830018
_cell_length_b                   5.874012
_cell_length_c                   17.0963
_cell_angle_alpha                90.0
_cell_angle_beta                 111.373
_cell_angle_gamma                90.0
loop_
_atom_site_label
_atom_site_type_symbol
_atom_site_fract_x
_atom_site_fract_y
_atom_site_fract_z
     1  Cl         0.94699160       0.71566170       0.32488100
     2  Cl         0.94699160       0.28433830       0.82488100
     3  Cl         0.06169130       0.30922000       0.42635700
     4  Cl         0.06169130       0.69078000       0.92635700
     5  O          0.71443000       0.31066000       0.29367180
     6  O          0.71443000       0.68934000       0.79367180
     7  O          0.83944000       0.18835000       0.20922000
     8  O          0.83944000       0.81165000       0.70922000
     9  C         -0.01246000       0.42217000       0.32332000
    10  C         -0.01246000       0.57783000       0.82332000
    11  H          0.07040000       0.40050000       0.29840000
    12  H          0.07040000       0.59950000       0.79840000
    13  C          0.83124000       0.29386000       0.26922000
    14  C          0.83124000       0.70614000       0.76922000
    15  Cl         0.18669160       0.77996820       0.16499110
    16  Cl         0.18669160       0.22003180       0.66499110
    17  Cl         0.10189140       0.20652000       0.07354700
    18  Cl         0.10189140       0.79348000       0.57354700
    19  H          0.53970000       0.21090000       0.23830000
    20  H          0.53970000       0.78910000       0.73830000
    21  O          0.33834000       0.28706000       0.28991190
    22  O          0.33834000       0.71294000       0.78991190
    23  O          0.45214000       0.14056000       0.20425190
    24  O          0.45214000       0.85944000       0.70425190
    25  C          0.17055000       0.07826000       0.17352000
    26  C          0.17055000       0.92174000       0.67352000
    27  H          0.09050000       0.10890000       0.19960000
    28  H          0.09050000       0.89110000       0.69960000
    29  C          0.33175000       0.18016000       0.22862000
    30  C          0.33175000       0.81984000       0.72862000
    31  N          0.68375000       0.16796000       0.60952000
    32  N          0.68375000       0.83204000       0.10952000
    33  N          0.51945000       0.71385000       0.44922000
    34  N          0.51945000       0.28615000       0.94922000
    35  H          0.72360000       0.05490000       0.64930000
    36  H          0.72360000       0.94510000       0.14930000
    37  C          0.57064000       0.53376000       0.50112000
    38  C          0.57064000       0.46624000       0.00112000
    39  C          0.50855000       0.48296000       0.56412000
    40  C          0.50855000       0.51704000       0.06412000
    41  H          0.42640000       0.57240000       0.57000000
    42  H          0.42640000       0.42760000       0.07000000
    43  C          0.56756000       0.30548000       0.61583000
    44  C          0.56756000       0.69452000       0.11583000
    45  H          0.52610000       0.27680000       0.65760000
    46  H          0.52610000       0.72320000       0.15760000
    47  C          0.74296000       0.20667000       0.54863000
    48  C          0.74296000       0.79333000       0.04863000
    49  H          0.82230000       0.10980000       0.54370000
    50  H          0.82230000       0.89020000       0.04370000
    51  C          0.68985000       0.38427000       0.49393000
    52  C          0.68985000       0.61573000      -0.00607000
    53  H          0.73200000       0.40650000       0.45190000
    54  H          0.73200000       0.59350000       0.95190000
    55  C          0.38676000       0.85647000       0.45254000
    56  C          0.38676000       0.14353000       0.95254000
    57  H          0.36640000      -0.02360000       0.41180000
    58  H          0.36640000       0.02360000       0.91180000
    59  H          0.41590000       0.92110000       0.50770000
    60  H          0.41590000       0.07890000       0.00770000
    61  H          0.29030000       0.76570000       0.44030000
    62  H          0.29030000       0.23430000       0.94030000
    63  C          0.58648000       0.76279000       0.38533000
    64  C          0.58648000       0.23721000       0.88533000
    65  H          0.53570000       0.89670000       0.35490000
    66  H          0.53570000       0.10330000       0.85490000
    67  H          0.56650000       0.63620000       0.34730000
    68  H          0.56650000       0.36380000       0.84730000
    69  H          0.70140000       0.78740000       0.41140000
    70  H          0.70140000       0.21260000       0.91140000
