data_GEPTEC
_symmetry_space_group_name_H-M    'P1'
_symmetry_Int_Tables_number       1
loop_
_symmetry_equiv_pos_site_id
_symmetry_equiv_pos_as_xyz
1 x,y,z
_cell_length_a                   8.282419
_cell_length_b                   11.0483
_cell_length_c                   14.0353
_cell_angle_alpha                86.6493
_cell_angle_beta                 76.4913
_cell_angle_gamma                70.2423
loop_
_atom_site_label
_atom_site_type_symbol
_atom_site_fract_x
_atom_site_fract_y
_atom_site_fract_z
     1  N          0.35842000       0.85293140       0.38000100
     2  N          0.64158000       0.14706860       0.61999900
     3  N          0.29502000       0.94010140       0.45834100
     4  N          0.70498000       0.05989860       0.54165900
     5  C          0.10152000       0.15492170       0.50124120
     6  C          0.89848000       0.84507830       0.49875880
     7  O          0.88568000       0.46399140       0.69913100
     8  O          0.11432000       0.53600860       0.30086900
     9  O          0.50089190       0.65407130       0.31972100
    10  O          0.49910810       0.34592870       0.68027900
    11  C          0.18332000       0.04299170       0.43408120
    12  C          0.81668000       0.95700830       0.56591880
    13  C          0.95137000       0.36618190       0.63110140
    14  C          0.04863000       0.63381810       0.36889860
    15  C          0.97448000       0.26430180       0.47999130
    16  C          0.02552000       0.73569820       0.52000870
    17  H          0.93870000       0.26750000       0.42150000
    18  H          0.06130000       0.73250000       0.57850000
    19  C          0.07973000       0.25772000       0.65285140
    20  C          0.92027000       0.74228000       0.34714860
    21  H          0.11590000       0.25500000       0.71110000
    22  H          0.88410000       0.74500000       0.28890000
    23  C          0.41352000       0.89145170       0.19913120
    24  C          0.58648000       0.10854830       0.80086880
    25  C          0.45882000       0.73113180       0.38906140
    26  C          0.54118000       0.26886820       0.61093860
    27  C          0.89917000       0.36943190       0.54410130
    28  C          0.10083000       0.63056810       0.45589870
    29  H          0.81350000       0.44230000       0.52860000
    30  H          0.18650000       0.55770000       0.47140000
    31  C          0.54182000       0.95204180       0.18958130
    32  C          0.45818000       0.04795820       0.81041870
    33  C          0.15423000       0.15377190       0.58904140
    34  C          0.84577000       0.84622810       0.41095860
    35  H          0.24110000       0.08150000       0.60440000
    36  H          0.75890000       0.91850000       0.39560000
    37  C          0.54753000       0.03486190       0.26187140
    38  C          0.45247000       0.96513810       0.73812860
    39  H          0.46230000       0.05080000       0.32040000
    40  H          0.53770000       0.94920000       0.67960000
    41  C          0.27672000       0.90208170       0.29523120
    42  C          0.72328000       0.09791830       0.70476880
    43  H          0.20470000       0.85020000       0.28810000
    44  H          0.79530000       0.14980000       0.71190000
    45  C          0.55263000       0.79682000       0.03344140
    46  C          0.44737000       0.20318000       0.96655860
    47  C          0.41523000       0.81610190       0.12105130
    48  C          0.58477000       0.18389810       0.87894870
    49  C          0.15202000       0.03643180       0.33323130
    50  C          0.84798000       0.96356820       0.66676870
    51  H          0.18170000       0.10290000       0.29200000
    52  H          0.81830000       0.89710000       0.70800000
    53  H          0.03040000       0.04500000       0.33650000
    54  H          0.96960000       0.95500000       0.66350000
    55  C          0.67853000       0.92952000       0.10133150
    56  C          0.32147000       0.07048000       0.89866850
    57  C          0.74127000       0.57262000       0.68552180
    58  C          0.25873000       0.42738000       0.31447820
    59  H          0.70880000       0.63350000       0.73860000
    60  H          0.29120000       0.36650000       0.26140000
    61  H          0.64310000       0.54580000       0.68410000
    62  H          0.35690000       0.45420000       0.31590000
    63  H          0.77440000       0.61210000       0.62470000
    64  H          0.22560000       0.38790000       0.37530000
    65  C          0.67983000       0.85213000       0.02722160
    66  C          0.32017000       0.14787000       0.97277840
    67  H          0.77020000       0.83700000       0.97110000
    68  H          0.22980000       0.16300000       0.02890000
    69  C          0.51453000       0.69402000       0.48354150
    70  C          0.48547000       0.30598000       0.51645850
    71  H          0.58480000       0.60450000       0.48030000
    72  H          0.41520000       0.39550000       0.51970000
    73  H          0.41210000       0.70880000       0.53630000
    74  H          0.58790000       0.29120000       0.46370000
    75  H          0.58250000       0.74470000       0.49470000
    76  H          0.41750000       0.25530000       0.50530000
    77  C          0.67363000       0.09142000       0.24802160
    78  C          0.32637000       0.90858000       0.75197840
    79  H          0.67060000       0.14760000       0.29570000
    80  H          0.32940000       0.85240000       0.70430000
    81  C          0.28934000       0.75393000       0.12126170
    82  C          0.71066000       0.24607000       0.87873830
    83  H          0.19680000       0.76440000       0.17590000
    84  H          0.80320000       0.23560000       0.82410000
    85  C          0.80784000       0.06573000       0.16272000
    86  C          0.19216000       0.93427000       0.83728000
    87  H          0.89520000       0.10300000       0.15440000
    88  H          0.10480000       0.89700000       0.84560000
    89  C          0.80974000      -0.01267000       0.09312000
    90  C          0.19026000       0.01267000       0.90688000
    91  H          0.90060000       0.97020000       0.03710000
    92  H          0.09940000       0.02980000       0.96290000
    93  C          0.55664000       0.71893000       0.95538830
    94  C          0.44336000       0.28107000       0.04461170
    95  H          0.64620000       0.70650000       0.89900000
    96  H          0.35380000       0.29350000       0.10100000
    97  C          0.43465000       0.66283000       0.96098000
    98  C          0.56535000       0.33717000       0.03902000
    99  H          0.43950000       0.61210000       0.90910000
   100  H          0.56050000       0.38790000       0.09090000
   101  C          0.29975000       0.68133000       0.04572000
   102  C          0.70025000       0.31867000       0.95428000
   103  H          0.21520000       0.64210000       0.04950000
   104  H          0.78480000       0.35790000       0.95050000
   105  O          0.74622000       0.42565150       0.30295120
   106  O          0.25378000       0.57434850       0.69704880
   107  H          0.67060000       0.49590000       0.30090000
   108  H          0.32940000       0.50410000       0.69910000
   109  C          0.86823000       0.40362000       0.22036170
   110  C          0.13177000       0.59638000       0.77963830
   111  O          0.98622000       0.30306170       0.20794150
   112  O          0.01378000       0.69693830       0.79205850
   113  C          0.85013000       0.50822000       0.14853170
   114  C          0.14987000       0.49178000       0.85146830
   115  H          0.94560000       0.48170000       0.09180000
   116  H          0.05440000       0.51830000       0.90820000
   117  H          0.85260000       0.58380000       0.17770000
   118  H          0.14740000       0.41620000       0.82230000
   119  H          0.74020000       0.52710000       0.12950000
   120  H          0.25980000       0.47290000       0.87050000
