data_GERQAV
_symmetry_space_group_name_H-M    'P1'
_symmetry_Int_Tables_number       1
loop_
_symmetry_equiv_pos_site_id
_symmetry_equiv_pos_as_xyz
1 x,y,z
_cell_length_a                   32.83111
_cell_length_b                   6.7252
_cell_length_c                   15.0205
_cell_angle_alpha                90.0
_cell_angle_beta                 90.0
_cell_angle_gamma                90.0
loop_
_atom_site_label
_atom_site_type_symbol
_atom_site_fract_x
_atom_site_fract_y
_atom_site_fract_z
     1  O          0.25000000       0.50000000       0.34901000
     2  O          0.75000000       0.50000000       0.15099000
     3  O          0.75000000       0.50000000       0.65099000
     4  O          0.25000000       0.50000000       0.84901000
     5  H          0.23360000       0.43020000       0.32990000
     6  H          0.26640000       0.56980000       0.32990000
     7  H          0.73360000       0.56980000       0.17010000
     8  H          0.76640000       0.43020000       0.17010000
     9  H          0.76640000       0.56980000       0.67010000
    10  H          0.73360000       0.43020000       0.67010000
    11  H          0.26640000       0.43020000       0.82990000
    12  H          0.23360000       0.56980000       0.82990000
    13  O          0.26933000       0.17731500       0.21547000
    14  O          0.23067000       0.82268500       0.21547000
    15  O          0.76933000       0.82268500       0.28453000
    16  O          0.73067000       0.17731500       0.28453000
    17  O          0.73067000       0.82268500       0.78453000
    18  O          0.76933000       0.17731500       0.78453000
    19  O          0.23067000       0.17731500       0.71547000
    20  O          0.26933000       0.82268500       0.71547000
    21  H          0.25640000       0.27160000       0.21800000
    22  H          0.24360000       0.72840000       0.21800000
    23  H          0.75640000       0.72840000       0.28200000
    24  H          0.74360000       0.27160000       0.28200000
    25  H          0.74360000       0.72840000       0.78200000
    26  H          0.75640000       0.27160000       0.78200000
    27  H          0.24360000       0.27160000       0.71800000
    28  H          0.25640000       0.72840000       0.71800000
    29  H          0.25540000       0.08420000       0.22610000
    30  H          0.24460000       0.91580000       0.22610000
    31  H          0.75540000       0.91580000       0.27390000
    32  H          0.74460000       0.08420000       0.27390000
    33  H          0.74460000       0.91580000       0.77390000
    34  H          0.75540000       0.08420000       0.77390000
    35  H          0.24460000       0.08420000       0.72610000
    36  H          0.25540000       0.91580000       0.72610000
    37  Br         0.25000000       0.50000000       0.05352000
    38  Br         0.75000000       0.50000000       0.44648000
    39  Br         0.75000000       0.50000000       0.94648000
    40  Br         0.25000000       0.50000000       0.55352000
    41  S          0.05279900       0.89876000       0.40322000
    42  S          0.44720100       0.10124000       0.40322000
    43  S          0.55279900       0.10124000       0.09678000
    44  S          0.94720100       0.89876000       0.09678000
    45  S          0.94720100       0.10124000       0.59678000
    46  S          0.55279900       0.89876000       0.59678000
    47  S          0.44720100       0.89876000       0.90322000
    48  S          0.05279900       0.10124000       0.90322000
    49  S          0.07178800       0.31564000       0.43762000
    50  S          0.42821200       0.68436000       0.43762000
    51  S          0.57178800       0.68436000       0.06238000
    52  S          0.92821200       0.31564000       0.06238000
    53  S          0.92821200       0.68436000       0.56238000
    54  S          0.57178800       0.31564000       0.56238000
    55  S          0.42821200       0.31564000       0.93762000
    56  S          0.07178800       0.68436000       0.93762000
    57  S          0.96070200       0.01944000       0.34882000
    58  S          0.53929800      -0.01944000       0.34882000
    59  S          0.46070200      -0.01944000       0.15118000
    60  S          0.03929800       0.01944000       0.15118000
    61  S          0.03929800      -0.01944000       0.65118000
    62  S          0.46070200       0.01944000       0.65118000
    63  S          0.53929800       0.01944000       0.84882000
    64  S          0.96070200      -0.01944000       0.84882000
    65  S          0.98157100       0.43984000       0.37142000
    66  S          0.51842900       0.56016000       0.37142000
    67  S          0.48157100       0.56016000       0.12858000
    68  S          0.01842900       0.43984000       0.12858000
    69  S          0.01842900       0.56016000       0.62858000
    70  S          0.48157100       0.43984000       0.62858000
    71  S          0.51842900       0.43984000       0.87142000
    72  S          0.98157100       0.56016000       0.87142000
    73  S          0.13472100       0.75145000       0.44933000
    74  S          0.36527900       0.24855000       0.44933000
    75  S          0.63472100       0.24855000       0.05067000
    76  S          0.86527900       0.75145000       0.05067000
    77  S          0.86527900       0.24855000       0.55067000
    78  S          0.63472100       0.75145000       0.55067000
    79  S          0.36527900       0.75145000       0.94933000
    80  S          0.13472100       0.24855000       0.94933000
    81  S          0.15708900       0.24935000       0.48933000
    82  S          0.34291100       0.75065000       0.48933000
    83  S          0.65708900       0.75065000       0.01067000
    84  S          0.84291100       0.24935000       0.01067000
    85  S          0.84291100       0.75065000       0.51067000
    86  S          0.65708900       0.24935000       0.51067000
    87  S          0.34291100       0.24935000       0.98933000
    88  S          0.15708900       0.75065000       0.98933000
    89  S          0.87641100       0.09264000       0.28862000
    90  S          0.62358900       0.90736000       0.28862000
    91  S          0.37641100       0.90736000       0.21138000
    92  S          0.12358900       0.09264000       0.21138000
    93  S          0.12358900       0.90736000       0.71138000
    94  S          0.37641100       0.09264000       0.71138000
    95  S          0.62358900       0.09264000       0.78862000
    96  S          0.87641100       0.90736000       0.78862000
    97  S          0.90355900       0.59335000       0.31033000
    98  S          0.59644100       0.40665000       0.31033000
    99  S          0.40355900       0.40665000       0.18967000
   100  S          0.09644100       0.59335000       0.18967000
   101  S          0.09644100       0.40665000       0.68967000
   102  S          0.40355900       0.59335000       0.68967000
   103  S          0.59644100       0.59335000       0.81033000
   104  S          0.90355900       0.40665000       0.81033000
   105  C          0.03553000       0.14041500       0.40507000
   106  C          0.46447000       0.85958500       0.40507000
   107  C          0.53553000       0.85958500       0.09493000
   108  C          0.96447000       0.14041500       0.09493000
   109  C          0.96447000       0.85958500       0.59493000
   110  C          0.53553000       0.14041500       0.59493000
   111  C          0.46447000       0.14041500       0.90507000
   112  C          0.03553000       0.85958500       0.90507000
   113  C         -0.00283000       0.19191500       0.37897000
   114  C          0.50283000       0.80808500       0.37897000
   115  C          0.49717000       0.80808500       0.12103000
   116  C          0.00283000       0.19191500       0.12103000
   117  C          0.00283000       0.80808500       0.62103000
   118  C          0.49717000       0.19191500       0.62103000
   119  C          0.50283000       0.19191500       0.87897000
   120  C         -0.00283000       0.80808500       0.87897000
   121  C          0.10153000       0.95208500       0.44127000
   122  C          0.39847000       0.04791500       0.44127000
   123  C          0.60153000       0.04791500       0.05873000
   124  C          0.89847000       0.95208500       0.05873000
   125  C          0.89847000       0.04791500       0.55873000
   126  C          0.60153000       0.95208500       0.55873000
   127  C          0.39847000       0.95208500       0.94127000
   128  C          0.10153000       0.04791500       0.94127000
   129  C          0.11083000       0.14371600       0.45657000
   130  C          0.38917000       0.85628400       0.45657000
   131  C          0.61083000       0.85628400       0.04343000
   132  C          0.88917000       0.14371600       0.04343000
   133  C          0.88917000       0.85628400       0.54343000
   134  C          0.61083000       0.14371600       0.54343000
   135  C          0.38917000       0.14371600       0.95657000
   136  C          0.11083000       0.85628400       0.95657000
   137  C          0.92307000       0.19221500       0.32306000
   138  C          0.57693000       0.80778500       0.32306000
   139  C          0.42307000       0.80778500       0.17694000
   140  C          0.07693000       0.19221500       0.17694000
   141  C          0.07693000       0.80778500       0.67694000
   142  C          0.42307000       0.19221500       0.67694000
   143  C          0.57693000       0.19221500       0.82306000
   144  C          0.92307000       0.80778500       0.82306000
   145  C          0.93257000       0.38441500       0.33187000
   146  C          0.56743000       0.61558500       0.33187000
   147  C          0.43257000       0.61558500       0.16813000
   148  C          0.06743000       0.38441500       0.16813000
   149  C          0.06743000       0.61558500       0.66813000
   150  C          0.43257000       0.38441500       0.66813000
   151  C          0.56743000       0.38441500       0.83187000
   152  C          0.93257000       0.61558500       0.83187000
   153  C          0.18225000       0.87267800       0.43641400
   154  C          0.31775000       0.12732200       0.43641400
   155  C          0.68225000       0.12732200       0.06358600
   156  C          0.81775000       0.87267800       0.06358600
   157  C          0.81775000       0.12732200       0.56358600
   158  C          0.68225000       0.87267800       0.56358600
   159  C          0.31775000       0.87267800       0.93641400
   160  C          0.18225000       0.12732200       0.93641400
   161  H          0.20355000       0.77657800       0.44791400
   162  H          0.29645000       0.22342200       0.44791400
   163  H          0.70355000       0.22342200       0.05208600
   164  H          0.79645000       0.77657800       0.05208600
   165  H          0.79645000       0.22342200       0.55208600
   166  H          0.70355000       0.77657800       0.55208600
   167  H          0.29645000       0.77657800       0.94791400
   168  H          0.20355000       0.22342200       0.94791400
   169  H          0.18475000       0.91367800       0.37471400
   170  H          0.31525000       0.08632200       0.37471400
   171  H          0.68475000       0.08632200       0.12528600
   172  H          0.81525000       0.91367800       0.12528600
   173  H          0.81525000       0.08632200       0.62528600
   174  H          0.68475000       0.91367800       0.62528600
   175  H          0.31525000       0.91367800       0.87471400
   176  H          0.18475000       0.08632200       0.87471400
   177  C          0.18934000       0.04172000       0.49101400
   178  C          0.31066000       0.95828000       0.49101400
   179  C          0.68934000       0.95828000       0.00898600
   180  C          0.81066000       0.04172000       0.00898600
   181  C          0.81066000       0.95828000       0.50898600
   182  C          0.68934000       0.04172000       0.50898600
   183  C          0.31066000       0.04172000      -0.00898600
   184  C          0.18934000       0.95828000      -0.00898600
   185  H          0.21654000       0.08922000       0.47711400
   186  H          0.28346000       0.91078000       0.47711400
   187  H          0.71654000       0.91078000       0.02288600
   188  H          0.78346000       0.08922000       0.02288600
   189  H          0.78346000       0.91078000       0.52288600
   190  H          0.71654000       0.08922000       0.52288600
   191  H          0.28346000       0.08922000       0.97711400
   192  H          0.21654000       0.91078000       0.97711400
   193  H          0.19014000      -0.00532000       0.55211400
   194  H          0.30986000       0.00532000       0.55211400
   195  H          0.69014000       0.00532000       0.94788600
   196  H          0.80986000      -0.00532000       0.94788600
   197  H          0.80986000       0.00532000       0.44788600
   198  H          0.69014000      -0.00532000       0.44788600
   199  H          0.30986000      -0.00532000       0.05211400
   200  H          0.19014000       0.00532000       0.05211400
   201  C          0.84465000       0.30662100       0.28991900
   202  C          0.65535000       0.69337900       0.28991900
   203  C          0.34465000       0.69337900       0.21008100
   204  C          0.15535000       0.30662100       0.21008100
   205  C          0.15535000       0.69337900       0.71008100
   206  C          0.34465000       0.30662100       0.71008100
   207  C          0.65535000       0.30662100       0.78991900
   208  C          0.84465000       0.69337900       0.78991900
   209  H          0.82365000       0.28252100       0.24581900
   210  H          0.67635000       0.71747900       0.24581900
   211  H          0.32365000       0.71747900       0.25418100
   212  H          0.17635000       0.28252100       0.25418100
   213  H          0.17635000       0.71747900       0.75418100
   214  H          0.32365000       0.28252100       0.75418100
   215  H          0.67635000       0.28252100       0.74581900
   216  H          0.82365000       0.71747900       0.74581900
   217  H          0.83105000       0.30592100       0.34731900
   218  H          0.66895000       0.69407900       0.34731900
   219  H          0.33105000       0.69407900       0.15268100
   220  H          0.16895000       0.30592100       0.15268100
   221  H          0.16895000       0.69407900       0.65268100
   222  H          0.33105000       0.30592100       0.65268100
   223  H          0.66895000       0.30592100       0.84731900
   224  H          0.83105000       0.69407900       0.84731900
   225  C          0.85686000       0.49082300       0.27711400
   226  C          0.64314000       0.50917700       0.27711400
   227  C          0.35686000       0.50917700       0.22288600
   228  C          0.14314000       0.49082300       0.22288600
   229  C          0.14314000       0.50917700       0.72288600
   230  C          0.35686000       0.49082300       0.72288600
   231  C          0.64314000       0.49082300       0.77711400
   232  C          0.85686000       0.50917700       0.77711400
   233  H          0.83606000       0.57432300       0.30361400
   234  H          0.66394000       0.42567700       0.30361400
   235  H          0.33606000       0.42567700       0.19638600
   236  H          0.16394000       0.57432300       0.19638600
   237  H          0.16394000       0.42567700       0.69638600
   238  H          0.33606000       0.57432300       0.69638600
   239  H          0.66394000       0.57432300       0.80361400
   240  H          0.83606000       0.42567700       0.80361400
   241  H          0.85526000       0.51272300       0.21341400
   242  H          0.64474000       0.48727700       0.21341400
   243  H          0.35526000       0.48727700       0.28658600
   244  H          0.14474000       0.51272300       0.28658600
   245  H          0.14474000       0.48727700       0.78658600
   246  H          0.35526000       0.51272300       0.78658600
   247  H          0.64474000       0.51272300       0.71341400
   248  H          0.85526000       0.48727700       0.71341400
