data_GESCUE
_symmetry_space_group_name_H-M    'P1'
_symmetry_Int_Tables_number       1
loop_
_symmetry_equiv_pos_site_id
_symmetry_equiv_pos_as_xyz
1 x,y,z
_cell_length_a                   8.1707
_cell_length_b                   12.2689
_cell_length_c                   11.3549
_cell_angle_alpha                90.0
_cell_angle_beta                 91.0047
_cell_angle_gamma                90.0
loop_
_atom_site_label
_atom_site_type_symbol
_atom_site_fract_x
_atom_site_fract_y
_atom_site_fract_z
     1  H          0.32320000       0.17971500       0.91958300
     2  H          0.67680000       0.67971500       0.58041700
     3  H          0.67680000       0.82028500       0.08041700
     4  H          0.32320000       0.32028500       0.41958300
     5  H          0.48820000       0.33021600       0.96398300
     6  H          0.51180000       0.83021600       0.53601700
     7  H          0.51180000       0.66978400       0.03601700
     8  H          0.48820000       0.16978400       0.46398300
     9  H          0.44220000       0.03841700       0.23951800
    10  H          0.55780000       0.53841700       0.26048200
    11  H          0.55780000       0.96158300       0.76048200
    12  H          0.44220000       0.46158300       0.73951800
    13  H          0.61520000       0.18511600       0.27781800
    14  H          0.38480000       0.68511600       0.22218200
    15  H          0.38480000       0.81488400       0.72218200
    16  H          0.61520000       0.31488400       0.77781800
    17  H          0.28230000       0.91728400       0.18321900
    18  H          0.71770000       0.41728400       0.31678100
    19  H          0.71770000       0.08271600       0.81678100
    20  H          0.28230000       0.58271600       0.68321900
    21  H          0.16830000       0.87038100       0.08631800
    22  H          0.83170000       0.37038100       0.41368200
    23  H          0.83170000       0.12961900       0.91368200
    24  H          0.16830000       0.62961900       0.58631800
    25  H          0.67330000       0.40420000       0.08330000
    26  H          0.32670000       0.90420000       0.41670000
    27  H          0.32670000       0.59580000       0.91670000
    28  H          0.67330000       0.09580000       0.58330000
    29  O          0.67145130       0.35450900       0.15334900
    30  O          0.32854870       0.85450900       0.34665100
    31  O          0.32854870       0.64549100       0.84665100
    32  O          0.67145130       0.14549100       0.65334900
    33  O          0.18348130       0.00615800       0.93618100
    34  O          0.81651870       0.50615800       0.56381900
    35  O          0.81651870      -0.00615800       0.06381900
    36  O          0.18348130       0.49384200       0.43618100
    37  N          0.22781160       0.92174900       0.10993110
    38  N          0.77218840       0.42174900       0.39006890
    39  N          0.77218840       0.07825100       0.89006890
    40  N          0.22781160       0.57825100       0.60993110
    41  C          0.38065160       0.18050110      -0.00817110
    42  C          0.61934840       0.68050110       0.50817110
    43  C          0.61934840       0.81949890       0.00817110
    44  C          0.38065160       0.31949890       0.49182890
    45  C          0.36214160       0.09493100       0.07167110
    46  C          0.63785840       0.59493100       0.42832890
    47  C          0.63785840       0.90506900       0.92832890
    48  C          0.36214160       0.40506900       0.57167110
    49  C          0.44995180       0.09845120       0.17883120
    50  C          0.55004820       0.59845120       0.32116880
    51  C          0.55004820       0.90154880       0.82116880
    52  C          0.44995180       0.40154880       0.67883120
    53  C          0.56879160       0.27036110       0.12463120
    54  C          0.43120840       0.77036110       0.37536880
    55  C          0.43120840       0.72963890       0.87536880
    56  C          0.56879160       0.22963890       0.62463120
    57  C          0.25231160       0.00347110       0.03665120
    58  C          0.74768840       0.50347110       0.46334880
    59  C          0.74768840      -0.00347110       0.96334880
    60  C          0.25231160       0.49652890       0.53665120
    61  C          0.48148160       0.26813110       0.01803120
    62  C          0.51851840       0.76813110       0.48196880
    63  C          0.51851840       0.73186890       0.98196880
    64  C          0.48148160       0.23186890       0.51803120
    65  C          0.55381180       0.18486120       0.20469120
    66  C          0.44618820       0.68486120       0.29530880
    67  C          0.44618820       0.81513880       0.79530880
    68  C          0.55381180       0.31513880       0.70469120
    69  H          0.91580000       0.70878500       0.72598300
    70  H          0.08420000       0.20878500       0.77401700
    71  H          0.08420000       0.29121500       0.27401700
    72  H          0.91580000       0.79121500       0.22598300
    73  H          0.78380000       0.55548500       0.77488300
    74  H          0.21620000       0.05548500       0.72511700
    75  H          0.21620000       0.44451500       0.22511700
    76  H          0.78380000       0.94451500       0.27488300
    77  H          0.92870000       0.64280000       0.03120000
    78  H          0.07130000       0.14280000       0.46880000
    79  H          0.07130000       0.35720000       0.96880000
    80  H          0.92870000       0.85720000       0.53120000
    81  O          0.04385130       0.85511100       0.83142100
    82  O          0.95614870       0.35511100       0.66857900
    83  O          0.95614870       0.14488900       0.16857900
    84  O          0.04385130       0.64488900       0.33142100
    85  H          0.09000000       0.89830000       0.87890000
    86  H          0.91000000       0.39830000       0.62110000
    87  H          0.91000000       0.10170000       0.12110000
    88  H          0.09000000       0.60170000       0.37890000
    89  O          0.86978870       0.58407200       0.05059900
    90  O          0.13021130       0.08407200       0.44940100
    91  O          0.13021130       0.41592800       0.94940100
    92  O          0.86978870       0.91592800       0.55059900
    93  O          0.02188130       0.75429200      -0.00565800
    94  O          0.97811870       0.25429200       0.50565800
    95  O          0.97811870       0.24570800       0.00565800
    96  O          0.02188130       0.74570800       0.49434200
    97  O          0.71081860       0.46775100       0.95542900
    98  O          0.28918140       0.96775100       0.54457100
    99  O          0.28918140       0.53224900       0.04457100
   100  O          0.71081860       0.03224900       0.45542900
   101  C          0.83536830       0.59709890       0.83645880
   102  C          0.16463170       0.09709890       0.66354120
   103  C          0.16463170       0.40290110       0.16354120
   104  C          0.83536830       0.90290110       0.33645880
   105  C          0.80261830       0.54653890       0.95312880
   106  C          0.19738170       0.04653890       0.54687120
   107  C          0.19738170       0.45346110       0.04687120
   108  C          0.80261830       0.95346110       0.45312880
   109  C          0.91537830       0.68820880       0.80807880
   110  C          0.08462170       0.18820880       0.69192120
   111  C          0.08462170       0.31179120       0.19192120
   112  C          0.91537830       0.81179120       0.30807880
   113  C         -0.00155160       0.76873890       0.88696880
   114  C          0.00155160       0.26873890       0.61303120
   115  C          0.00155160       0.23126110       0.11303120
   116  C         -0.00155160       0.73126110       0.38696880
