data_GETQIF
_symmetry_space_group_name_H-M    'P1'
_symmetry_Int_Tables_number       1
loop_
_symmetry_equiv_pos_site_id
_symmetry_equiv_pos_as_xyz
1 x,y,z
_cell_length_a                   5.3782
_cell_length_b                   10.3834
_cell_length_c                   11.3164
_cell_angle_alpha                90.0
_cell_angle_beta                 91.723
_cell_angle_gamma                90.0
loop_
_atom_site_label
_atom_site_type_symbol
_atom_site_fract_x
_atom_site_fract_y
_atom_site_fract_z
     1  Cl         0.33391000       0.50000000       0.85991000
     2  Cl         0.66609000      -0.00000000       0.14009000
     3  Cl         0.35862000       0.80699000       0.65061000
     4  Cl         0.64138000       0.30699000       0.34939000
     5  Cl         0.48782000       0.09001000       0.72741000
     6  Cl         0.51218000       0.59001000       0.27259000
     7  H          0.45612000       0.96830000       0.67860000
     8  H          0.54388000       0.46830000       0.32140000
     9  N          0.01465000       0.46033000       0.63022000
    10  N         -0.01465000       0.96033000       0.36978000
    11  C          0.83302000       0.56624000       0.60884000
    12  C          0.16698000       0.06624000       0.39116000
    13  C          0.88472000       0.33804000       0.65554000
    14  C          0.11528000       0.83804000       0.34446000
    15  C          0.18568000       0.44627000       0.53194000
    16  C          0.81432000       0.94627000       0.46806000
    17  H          0.11190000       0.47360000       0.70640000
    18  H          0.88810000       0.97360000       0.29360000
    19  H          0.71590000       0.56570000       0.68350000
    20  H          0.28410000       0.06570000       0.31650000
    21  H          0.72390000       0.54260000       0.53250000
    22  H          0.27610000       0.04260000       0.46750000
    23  H          0.93289000       0.66070000       0.61350000
    24  H          0.06711000       0.16070000       0.38650000
    25  H          0.78810000       0.31060000       0.58550000
    26  H          0.21190000       0.81060000       0.41450000
    27  H          0.77220000       0.36650000       0.71940000
    28  H          0.22780000       0.86650000       0.28060000
    29  H          0.03112000       0.27780000       0.66860000
    30  H          0.96888000       0.77780000       0.33140000
    31  H          0.08480000       0.43250000       0.45740000
    32  H          0.91520000       0.93250000       0.54260000
    33  H          0.30510000       0.36360000       0.55250000
    34  H          0.69490000       0.86360000       0.44750000
    35  H          0.26190000       0.53060000       0.52340000
    36  H          0.73810000       0.03060000       0.47660000
    37  N          0.02835000       0.73113000       0.94743000
    38  N          0.97165000       0.23113000       0.05257000
    39  C          0.85514000       0.79955000       0.86423000
    40  C          0.14486000       0.29955000       0.13577000
    41  C          0.22476000       0.81874000      -0.00347000
    42  C          0.77524000       0.31874000       0.00347000
    43  C          0.88953000       0.67124000       0.04544000
    44  C          0.11047000       0.17124000       0.95456000
    45  H          0.11980000       0.67350000       0.91240000
    46  H          0.88020000       0.17350000       0.08760000
    47  H          0.76730000       0.86750000       0.89440000
    48  H          0.23270000       0.36750000       0.10560000
    49  H          0.71610000       0.73560000       0.82940000
    50  H          0.28390000       0.23560000       0.17060000
    51  H          0.94530000       0.81850000       0.80630000
    52  H          0.05470000       0.31850000       0.19370000
    53  H          0.34580000       0.76850000       0.04540000
    54  H          0.65420000       0.26850000       0.95460000
    55  H          0.14770000       0.89940000       0.04730000
    56  H          0.85230000       0.39940000       0.95270000
    57  H          0.30480000       0.85650000       0.93440000
    58  H          0.69520000       0.35650000       0.06560000
    59  H          0.76830000       0.62150000       0.01240000
    60  H          0.23170000       0.12150000       0.98760000
    61  H          0.00870000       0.62940000       0.09640000
    62  H         -0.00870000       0.12940000       0.90360000
    63  H          0.79820000       0.73450000       0.09140000
    64  H          0.20180000       0.23450000       0.90860000
