data_GEXFAU
_symmetry_space_group_name_H-M    'P1'
_symmetry_Int_Tables_number       1
loop_
_symmetry_equiv_pos_site_id
_symmetry_equiv_pos_as_xyz
1 x,y,z
_cell_length_a                   13.10476
_cell_length_b                   14.58696
_cell_length_c                   14.74386
_cell_angle_alpha                96.4882
_cell_angle_beta                 115.59001
_cell_angle_gamma                114.99301
loop_
_atom_site_label
_atom_site_type_symbol
_atom_site_fract_x
_atom_site_fract_y
_atom_site_fract_z
     1  N          0.77263120       0.35862100       0.21319100
     2  N          0.22736880       0.64137900       0.78680900
     3  N          0.31112130       0.20545100       0.36148100
     4  N          0.68887870       0.79454900       0.63851900
     5  N          0.47113140       0.25295110       0.31853120
     6  N          0.52886860       0.74704890       0.68146880
     7  N          0.61657130       0.29764120       0.26160110
     8  N          0.38342870       0.70235880       0.73839890
     9  C          0.69963150       0.38745130       0.12750120
    10  C          0.30036850       0.61254870       0.87249880
    11  C          0.58630170       0.32126130       0.33122130
    12  C          0.41369830       0.67873870       0.66877870
    13  C          0.74102150       0.49725130       0.14464120
    14  C          0.25897850       0.50274870       0.85535880
    15  C          0.26485150       0.01856130       0.31971130
    16  C          0.73514850       0.98143870       0.68028870
    17  C          0.40675160       0.05718130       0.53978140
    18  C          0.59324840       0.94281870       0.46021860
    19  H          0.45642100       0.06988000       0.61442800
    20  H          0.54357900       0.93012000       0.38557200
    21  C          0.57345170       0.44338140       0.95732870
    22  C          0.42654830       0.55661860       0.04267130
    23  H          0.53357700       0.46285100       0.89815600
    24  H          0.46642300       0.53714900       0.10184400
    25  C          0.58901150       0.30468130       0.02865130
    26  C          0.41098850       0.69531870       0.97134870
    27  C          0.81660160       0.28007130       0.34557130
    28  C          0.18339840       0.71992870       0.65442870
    29  C          0.38520150       0.26838120       0.32774120
    30  C          0.61479850       0.73161880       0.67225880
    31  C          0.89180160       0.35419130       0.22751130
    32  C          0.10819840       0.64580870       0.77248870
    33  C          0.84203160       0.58733130       0.25471130
    34  C          0.15796840       0.41266870       0.74528870
    35  H          0.88149100       0.55646700       0.30727600
    36  H          0.11850900       0.44353300       0.69272400
    37  C          0.27057160       0.93576870       0.35685140
    38  C          0.72942840       0.06423130       0.64314860
    39  H          0.22700000       0.86533500       0.30613500
    40  H          0.77300000       0.13466500       0.69386500
    41  C          0.52791160       0.33558140       0.94440870
    42  C          0.47208840       0.66441860       0.05559130
    43  H          0.45341700       0.28114800       0.87680900
    44  H          0.54658300       0.71885200       0.12319100
    45  C          0.49511160       0.25718130       0.59205130
    46  C          0.50488840       0.74281870       0.40794870
    47  H          0.47597800       0.30734000       0.55657500
    48  H          0.52402200       0.69266000       0.44342500
    49  C          0.20046160       0.22156130       0.34905140
    50  C          0.79953840       0.77843870       0.65094860
    51  C          0.00185160       0.46261140       0.24472140
    52  C         -0.00185160       0.53738860       0.75527860
    53  H          0.96973100       0.48129300       0.18043800
    54  H          0.03026900       0.51870700       0.81956200
    55  H          0.07884400       0.45754100       0.25758300
    56  H          0.92115600       0.54245900       0.74241700
    57  H          0.02792600       0.51889800       0.30724700
    58  H          0.97207400       0.48110200       0.69275300
    59  C          0.67725160       0.52257140       0.05679130
    60  C          0.32274840       0.47742860       0.94320870
    61  H          0.70616200       0.59647300       0.06575400
    62  H          0.29383800       0.40352700       0.93424600
    63  C          0.33819160       0.95426870       0.46563140
    64  C          0.66180840       0.04573130       0.53436860
    65  H          0.33745600       0.89620400       0.48932600
    66  H          0.66254400       0.10379600       0.51067400
    67  C          0.20490170       0.24282140       0.45445140
    68  C          0.79509830       0.75717860       0.54554860
    69  H          0.19184600       0.17950600       0.47583200
    70  H          0.80815400       0.82049400       0.52416800
    71  H          0.13422800       0.25616800       0.44474600
    72  H          0.86577200       0.74383200       0.55525400
    73  H          0.29149600       0.30647900       0.51070400
    74  H          0.70850400       0.69352100       0.48929600
    75  C          0.95523170       0.68182130       0.25554140
    76  C          0.04476830       0.31817870       0.74445860
    77  H          0.91894700       0.71579400       0.20751800
    78  H          0.08105300       0.28420600       0.79248200
    79  H         -0.00120500       0.65451900       0.23058600
    80  H          0.00120500       0.34548100       0.76941400
    81  H          0.02025700       0.73552500       0.32903300
    82  H         -0.02025700       0.26447500       0.67096700
    83  C          0.93467160       0.32634140       0.33022130
    84  C          0.06532840       0.67365860       0.66977870
    85  H          0.96008900       0.27223500       0.32276200
    86  H          0.03991100       0.72776500       0.67723800
    87  H          0.01225500       0.39229300       0.39342200
    88  H         -0.01225500       0.60770700       0.60657800
    89  C          0.32964170       0.33632130       0.27971140
    90  C          0.67035830       0.66367870       0.72028860
    91  C          0.52799170       0.18420130       0.00964130
    92  C          0.47200830       0.81579870      -0.00964130
    93  H          0.58676200       0.17632500       0.07533200
    94  H          0.41323800       0.82367500       0.92466800
    95  C          0.06508160       0.12167140       0.26192150
    96  C          0.93491840       0.87832860       0.73807850
    97  H          0.05925400       0.11036100       0.19263500
    98  H          0.94074600       0.88963900       0.80736500
    99  H         -0.00586600       0.13295900       0.25585300
   100  H          0.00586600       0.86704100       0.74414700
   101  H          0.05521100       0.05776000       0.28150200
   102  H          0.94478900       0.94224000       0.71849800
   103  C          0.77158170       0.62961140       0.29152140
   104  C          0.22841830       0.37038860       0.70847860
   105  H          0.73641200       0.66377100       0.24310600
   106  H          0.26358800       0.33622900       0.75689400
   107  H          0.83517600       0.68305300       0.36522900
   108  H          0.16482400       0.31694700       0.63477100
   109  H          0.69825800       0.56896200       0.28968100
   110  H          0.30174200       0.43103800       0.71031900
   111  C          0.47261180       0.26538140       0.68541140
   112  C          0.52738820       0.73461860       0.31458860
   113  H          0.49567700       0.21979700       0.72376400
   114  H          0.50432300       0.78020300       0.27623600
   115  H          0.37893100       0.24064700       0.65709100
   116  H          0.62106900       0.75935300       0.34290900
   117  H          0.52879100       0.34094400       0.73519800
   118  H          0.47120900       0.65905600       0.26480200
   119  C          0.43342000       0.45552150       0.31672180
   120  C          0.56658000       0.54447850       0.68327820
   121  H          0.48313400       0.48786800       0.39555800
   122  H          0.51686600       0.51213200       0.60444200
   123  H          0.38908800       0.49360700       0.28513800
   124  H          0.61091200       0.50639300       0.71486200
   125  H          0.49482100       0.46182100       0.29327700
   126  H          0.50517900       0.53817900       0.70672300
   127  C          0.73130190       0.15494140       0.29578160
   128  C          0.26869810       0.84505860       0.70421840
   129  H          0.65347600       0.12910300       0.30235800
   130  H          0.34652400       0.87089700       0.69764200
   131  H          0.78439600       0.12523300       0.33395700
   132  H          0.21560400       0.87476700       0.66604300
   133  H          0.70187600       0.13106300       0.21941800
   134  H          0.29812400       0.86893700       0.78058200
   135  C          0.29022000       0.98008850       0.16397160
   136  C          0.70978000       0.01991150       0.83602840
   137  H          0.37934200       0.04563300       0.20393000
   138  H          0.62065800       0.95436700       0.79607000
   139  H          0.25041600       0.96602200       0.08651500
   140  H          0.74958400       0.03397800       0.91348500
   141  H          0.29650700       0.91823600       0.17876800
   142  H          0.70349300       0.08176400       0.82123200
   143  C          0.25732000       0.28511170       0.15614150
   144  C          0.74268000       0.71488830       0.84385850
   145  H          0.32206700       0.29226900       0.13638300
   146  H          0.67793300       0.70773100       0.86361700
   147  H          0.21322000       0.32238600       0.12191800
   148  H          0.78678000       0.67761400       0.87808200
   149  H          0.19082300       0.20812000       0.13158200
   150  H          0.80917700       0.79188000       0.86841800
   151  C          0.73234150       0.32136120       0.27741120
   152  C          0.26765850       0.67863880       0.72258880
   153  C          0.40496150       0.14340130       0.50773130
   154  C          0.59503850       0.85659870       0.49226870
   155  C          0.32757150       0.12113120       0.39701130
   156  C          0.67242850       0.87886880       0.60298870
   157  C          0.23367170       0.32304130       0.31781140
   158  C          0.76632830       0.67695870       0.68218860
   159  H          0.15137600       0.31442600       0.25931500
   160  H          0.84862400       0.68557400       0.74068500
   161  H          0.27573100       0.38796100       0.38074600
   162  H          0.72426900       0.61203900       0.61925400
   163  C          0.85036170       0.26758140       0.12864140
   164  C          0.14963830       0.73241860       0.87135860
   165  H          0.78406700       0.19647700       0.12005900
   166  H          0.21593300       0.80352300       0.87994100
   167  H          0.92845200       0.26623400       0.13822000
   168  H          0.07154800       0.73376600       0.86178000
   169  H          0.81198100       0.28448700       0.06424600
   170  H          0.18801900       0.71551300       0.93575400
   171  C          0.20297170      -0.00368140       0.19952140
   172  C          0.79702830       0.00368140       0.80047860
   173  H          0.20092000       0.06149200       0.18645900
   174  H          0.79908000       0.93850800       0.81354100
   175  C          0.64115160       0.29356140       0.63540140
   176  C          0.35884840       0.70643860       0.36459860
   177  H          0.69902800       0.36856600       0.68668500
   178  H          0.30097200       0.63143400       0.31331500
   179  H          0.65519800       0.28912000       0.57533600
   180  H          0.34480200       0.71088000       0.42466400
   181  H          0.66236500       0.24619700       0.67184400
   182  H          0.33763500       0.75380300       0.32815600
   183  C          0.69072000       0.43013150       0.43308140
   184  C          0.30928000       0.56986850       0.56691860
   185  C          0.39036180       0.13477150      -0.00516150
   186  C          0.60963820       0.86522850       0.00516150
   187  H          0.33102800       0.14259900       0.93157000
   188  H          0.66897200       0.85740100       0.06843000
   189  H          0.39818600       0.17242300       0.05909400
   190  H          0.60181400       0.82757700       0.94090600
   191  H          0.35379500       0.05764800       0.98440200
   192  H          0.64620500       0.94235200       0.01559800
   193  C          0.51856190       0.12098140       0.91284860
   194  C          0.48143810       0.87901860       0.08715140
   195  H          0.49583800       0.04768200       0.91251700
   196  H          0.50416200       0.95231800       0.08748300
   197  H          0.60430200       0.15845600       0.91834200
   198  H          0.39569800       0.84154400       0.08165800
   199  H          0.44951100       0.11644200       0.84591100
   200  H          0.55048900       0.88355800       0.15408900
   201  C          0.86216180       0.31548160       0.46420140
   202  C          0.13783820       0.68451840       0.53579860
   203  H          0.91651500       0.39485000       0.49678300
   204  H          0.08348500       0.60515000       0.50321700
   205  H          0.91500300       0.28523800       0.50147300
   206  H          0.08499700       0.71476200       0.49852700
   207  H          0.78428800       0.28915800       0.47074900
   208  H          0.21571200       0.71084200       0.52925100
   209  C          0.06029190       0.89774850       0.13070150
   210  C          0.93970810       0.10225150       0.86929850
   211  H          0.06086400       0.83194000       0.13778300
   212  H          0.93913600       0.16806000       0.86221700
   213  H          0.02319500       0.89121700       0.05495900
   214  H          0.97680500       0.10878300       0.94504100
   215  H          0.00565200       0.90709600       0.15539900
   216  H         -0.00565200       0.09290400       0.84460100
   217  O          0.79531140       0.48594110       0.43548110
   218  O          0.20468860       0.51405890       0.56451890
   219  O          0.65449170       0.44467110       0.49482110
   220  O          0.34550830       0.55532890       0.50517890
   221  C          0.94122000       0.93423160       0.39660190
   222  C          0.05878000       0.06576840       0.60339810
   223  H          0.90026900       0.88856000       0.32469300
   224  H          0.09973100       0.11144000       0.67530700
   225  C          0.93872000       0.04560170       0.52472000
   226  C          0.06128000       0.95439830       0.47528000
   227  H          0.89622500       0.07735500       0.54193700
   228  H          0.10377500       0.92264500       0.45806300
   229  C          0.87962000       0.98018170       0.42162000
   230  C          0.12038000       0.01981830       0.57838000
   231  H          0.79602200       0.96623200       0.36697300
   232  H          0.20397800       0.03376800       0.63302700
   233  C          0.08672000       0.60917160       0.06052150
   234  C          0.91328000       0.39082840       0.93947850
   235  H          0.14641600       0.68447900       0.10221600
   236  H          0.85358400       0.31552100       0.89778400
   237  C          0.04882000       0.43413170      -0.00675150
   238  C          0.95118000       0.56586830       0.00675150
   239  H          0.08228200       0.38851400       0.98844300
   240  H          0.91771800       0.61148600       0.01155700
   241  C          0.13543190       0.54285180       0.05363150
   242  C          0.86456810       0.45714820       0.94636850
   243  H          0.22869100       0.57247700       0.09062900
   244  H          0.77130900       0.42752300       0.90937100
