data_GEYNED
_symmetry_space_group_name_H-M    'P1'
_symmetry_Int_Tables_number       1
loop_
_symmetry_equiv_pos_site_id
_symmetry_equiv_pos_as_xyz
1 x,y,z
_cell_length_a                   9.2153
_cell_length_b                   12.5284
_cell_length_c                   17.1107
_cell_angle_alpha                105.033
_cell_angle_beta                 91.143
_cell_angle_gamma                103.562
loop_
_atom_site_label
_atom_site_type_symbol
_atom_site_fract_x
_atom_site_fract_y
_atom_site_fract_z
     1  S          0.27131150       0.18572900       0.54210300
     2  S          0.72868850       0.81427100       0.45789700
     3  S          0.28570150       0.42204900       0.53663300
     4  S          0.71429850       0.57795100       0.46336700
     5  S          0.03472000       0.08711100       0.38313300
     6  S          0.96528000       0.91288900       0.61686700
     7  S          0.04257150       0.32535900       0.37861300
     8  S          0.95742850       0.67464100       0.62138700
     9  S          0.51174140       0.25566100       0.67884300
    10  S          0.48825860       0.74433900       0.32115700
    11  S          0.52874140       0.52733100       0.67321300
    12  S          0.47125860       0.47266900       0.32678700
    13  S          0.80268000      -0.00589100       0.23414200
    14  S          0.19732000       0.00589100       0.76585800
    15  S          0.80500850       0.23112100       0.23199300
    16  S          0.19499150       0.76887900       0.76800700
    17  C          0.20915000       0.27523000       0.49147000
    18  C          0.79085000       0.72477000       0.50853000
    19  C          0.10715000       0.23524000       0.42737000
    20  C          0.89285000       0.76476000       0.57263000
    21  C          0.40175000       0.29614000       0.61217000
    22  C          0.59825000       0.70386000       0.38783000
    23  C          0.40875000       0.40374000       0.60937000
    24  C          0.59125000       0.59626000       0.39063000
    25  C          0.92815000       0.10604000       0.30487000
    26  C          0.07185000       0.89396000       0.69513000
    27  C          0.92965000       0.21354000       0.30398000
    28  C          0.07035000       0.78646000       0.69602000
    29  C          0.45575000       0.31864000       0.77877000
    30  C          0.54425000       0.68136000       0.22123000
    31  C          0.46425000       0.52474000       0.77307000
    32  C          0.53575000       0.47526000       0.22693000
    33  C          0.52365000       0.44604000       0.81368000
    34  C          0.47635000       0.55396000       0.18632000
    35  C          0.78434000       0.08554000       0.16917000
    36  C          0.21566000       0.91446000       0.83083000
    37  H          0.48280000       0.27700000       0.81800000
    38  H          0.51720000       0.72300000       0.18200000
    39  H          0.34270000       0.30590000       0.77480000
    40  H          0.65730000       0.69410000       0.22520000
    41  H          0.35100000       0.49900000       0.76710000
    42  H          0.64900000       0.50100000       0.23290000
    43  H          0.49370000       0.60510000       0.80990000
    44  H          0.50630000       0.39490000       0.19010000
    45  H          0.63570000       0.45980000       0.80740000
    46  H          0.36430000       0.54020000       0.19260000
    47  H          0.51000000       0.46790000       0.87320000
    48  H          0.49000000       0.53210000       0.12680000
    49  H          0.68330000       0.05640000       0.13720000
    50  H          0.31670000       0.94360000       0.86280000
    51  H          0.86380000       0.08360000       0.12930000
    52  H          0.13620000       0.91640000       0.87070000
    53  S          0.82581860       0.37128900       0.56742300
    54  S          0.17418140       0.62871100       0.43257700
    55  S          0.81545860       0.13759900       0.57069300
    56  S          0.18454140       0.86240100       0.42930700
    57  S          0.58192850       0.27410900       0.40982300
    58  S          0.41807150       0.72589100       0.59017700
    59  S          0.58642860       0.03984900       0.41015300
    60  S          0.41357140       0.96015100       0.58984700
    61  S          0.05276150       0.47876100       0.70969200
    62  S          0.94723850       0.52123900       0.29030800
    63  S          0.04177140       0.20513100       0.71226300
    64  S          0.95822860       0.79486900       0.28773700
    65  S          0.36558000       0.18169100       0.25525200
    66  S          0.63442000       0.81830900       0.74474800
    67  S          0.38078000       0.94464900       0.25310200
    68  S          0.61922000       0.05535100       0.74689800
    69  C          0.75525000       0.22723000       0.52228000
    70  C          0.24475000       0.77277000       0.47772000
    71  C          0.65315000       0.18493000       0.45487000
    72  C          0.34685000       0.81507000       0.54513000
    73  C          0.93875000       0.35454000       0.64387000
    74  C          0.06125000       0.64546000       0.35613000
    75  C          0.93415000       0.24634000       0.64508000
    76  C          0.06585000       0.75366000       0.35492000
    77  C          0.47105000       0.16374000       0.33438000
    78  C          0.52895000       0.83626000       0.66562000
    79  C          0.47405000       0.05644000       0.33418000
    80  C          0.52595000       0.94356000       0.66582000
    81  C         -0.01156000       0.47144000       0.80907000
    82  C          0.01156000       0.52856000       0.19093000
    83  C         -0.02006000       0.26564000       0.81037000
    84  C          0.02006000       0.73436000       0.18963000
    85  C          0.04716000       0.39224000       0.84857000
    86  C          0.95284000       0.60776000       0.15143000
    87  C          0.29203000       0.03084000       0.20977000
    88  C          0.70797000       0.96916000       0.79023000
    89  H          0.87550000       0.44460000       0.80290000
    90  H          0.12450000       0.55540000       0.19710000
    91  H          0.01690000       0.55090000       0.84710000
    92  H         -0.01690000       0.44910000       0.15290000
    93  H          0.00260000       0.22190000       0.84920000
    94  H         -0.00260000       0.77810000       0.15080000
    95  H          0.86730000       0.25370000       0.80390000
    96  H          0.13270000       0.74630000       0.19610000
    97  H          0.03050000       0.41170000       0.90820000
    98  H          0.96950000       0.58830000       0.09180000
    99  H          0.15990000       0.40750000       0.84440000
   100  H          0.84010000       0.59250000       0.15560000
   101  H          0.30240000       0.01270000       0.14970000
   102  H          0.69760000      -0.01270000       0.85030000
   103  H          0.17980000       0.01000000       0.21720000
   104  H          0.82020000      -0.01000000       0.78280000
   105  C          0.14858000       0.26825000       0.11764000
   106  C          0.85142000       0.73175000       0.88236000
   107  C          0.18038000       0.29306000       0.03894000
   108  C          0.81962000       0.70694000       0.96106000
   109  C          0.16728000       0.17816000       0.97966000
   110  C          0.83272000       0.82184000       0.02034000
   111  C          0.20018000       0.10675000       0.03384000
   112  C          0.79982000       0.89325000       0.96616000
   113  O          0.15165000       0.15303000       0.11102000
   114  O          0.84835000       0.84697000       0.88898000
   115  H          0.04700000       0.28180000       0.13310000
   116  H          0.95300000       0.71820000       0.86690000
   117  H          0.22580000       0.32300000       0.16260000
   118  H          0.77420000       0.67700000       0.83740000
   119  H          0.28520000       0.34430000       0.04250000
   120  H          0.71480000       0.65570000       0.95750000
   121  H          0.10760000       0.33350000       0.02200000
   122  H          0.89240000       0.66650000       0.97800000
   123  H          0.24240000       0.18430000       0.93690000
   124  H          0.75760000       0.81570000       0.06310000
   125  H          0.06460000       0.14710000       0.95040000
   126  H          0.93540000       0.85290000       0.04960000
   127  H          0.31270000       0.11140000       0.03850000
   128  H          0.68730000       0.88860000       0.96150000
   129  H          0.14740000       0.02400000       0.01020000
   130  H          0.85260000       0.97600000       0.98980000
   131  P          0.66698000       0.26092000      -0.00712900
   132  P          0.33302000       0.73908000       0.00712900
   133  F          0.61752000       0.21446000       0.06433000
   134  F          0.38248000       0.78554000       0.93567000
   135  F          0.56462000       0.33986000       0.01225000
   136  F          0.43538000       0.66014000       0.98775000
   137  F          0.80063000       0.34775000       0.04114000
   138  F          0.19937000       0.65225000       0.95886000
   139  F          0.70924000       0.30506000       0.91717000
   140  F          0.29076000       0.69494000       0.08283000
   141  F          0.76693000       0.18025000       0.96505000
   142  F          0.23307000       0.81975000       0.03495000
   143  F          0.53184000       0.17036000       0.94077000
   144  F          0.46816000       0.82964000       0.05923000
