data_GIDMEM
_symmetry_space_group_name_H-M    'P1'
_symmetry_Int_Tables_number       1
loop_
_symmetry_equiv_pos_site_id
_symmetry_equiv_pos_as_xyz
1 x,y,z
_cell_length_a                   4.15814
_cell_length_b                   10.79748
_cell_length_c                   12.795819
_cell_angle_alpha                91.10211
_cell_angle_beta                 97.91312
_cell_angle_gamma                90.9128
loop_
_atom_site_label
_atom_site_type_symbol
_atom_site_fract_x
_atom_site_fract_y
_atom_site_fract_z
     1  I          0.74502400       0.41721416       0.24190812
     2  I          0.25497600       0.58278584       0.75809188
     3  F         -0.00175000       0.25628140       0.05427130
     4  F          0.00175000       0.74371860       0.94572870
     5  F          0.79715000       0.68019150       0.12705120
     6  F          0.20285000       0.31980850       0.87294880
     7  C          0.89076000       0.46602000       0.09631180
     8  C          0.10924000       0.53398000       0.90368820
     9  C          0.89866000       0.58972000       0.06535190
    10  C          0.10134000       0.41028000       0.93464810
    11  C         -0.00464000       0.37862000       0.02862000
    12  C          0.00464000       0.62138000       0.97138000
    13  O          0.57595000       0.11900180       0.78213140
    14  O          0.42405000       0.88099820       0.21786860
    15  N          0.57076000       0.32992000       0.43841170
    16  N          0.42924000       0.67008000       0.56158830
    17  O          0.19816000       0.00451190       0.67729160
    18  O          0.80184000      -0.00451190       0.32270840
    19  C          0.38787000       0.22542000       0.42112000
    20  C          0.61213000       0.77458000       0.57888000
    21  H          0.29670000       0.20440000       0.35060000
    22  H          0.70330000       0.79560000       0.64940000
    23  C          0.46076000       0.17602000       0.60432000
    24  C          0.53924000       0.82398000       0.39568000
    25  C          0.32557000       0.14672000       0.50092000
    26  C          0.67443000       0.85328000       0.49908000
    27  H          0.19340000       0.07440000       0.48520000
    28  H          0.80660000       0.92560000       0.51480000
    29  C          0.65117000       0.28392000       0.62362000
    30  C          0.34883000       0.71608000       0.37638000
    31  H          0.74750000       0.30650000       0.69320000
    32  H          0.25250000       0.69350000       0.30680000
    33  C          0.39337000       0.08962000       0.69002000
    34  C          0.60663000       0.91038000       0.30998000
    35  C          0.69637000       0.35773000       0.53822000
    36  C          0.30363000       0.64227000       0.46178000
    37  H          0.82310000       0.43170000       0.55160000
    38  H          0.17690000       0.56830000       0.44840000
    39  C          0.52439000       0.03983000       0.86972000
    40  C          0.47561000       0.96017000       0.13028000
    41  H          0.66720000       0.06770000       0.93350000
    42  H          0.33280000       0.93230000       0.06650000
    43  H          0.57370000       0.95400000       0.85240000
    44  H          0.42630000       0.04600000       0.14760000
    45  H          0.29750000       0.04450000       0.88220000
    46  H          0.70250000       0.95550000       0.11780000
