data_GIFFEJ
_symmetry_space_group_name_H-M    'P1'
_symmetry_Int_Tables_number       1
loop_
_symmetry_equiv_pos_site_id
_symmetry_equiv_pos_as_xyz
1 x,y,z
_cell_length_a                   14.38234
_cell_length_b                   11.45833
_cell_length_c                   7.17892
_cell_angle_alpha                90.0
_cell_angle_beta                 95.2813
_cell_angle_gamma                90.0
loop_
_atom_site_label
_atom_site_type_symbol
_atom_site_fract_x
_atom_site_fract_y
_atom_site_fract_z
     1  O          0.21225700       0.23305800       0.28759140
     2  O          0.78774300       0.73305800       0.21240860
     3  O          0.78774300       0.76694200       0.71240860
     4  O          0.21225700       0.26694200       0.78759140
     5  N          0.19559100       0.40235110       0.12538190
     6  N          0.80440900       0.90235110       0.37461810
     7  N          0.80440900       0.59764890       0.87461810
     8  N          0.19559100       0.09764890       0.62538190
     9  H          0.18791400       0.48021900       0.13030000
    10  H          0.81208600       0.98021900       0.36970000
    11  H          0.81208600       0.51978100       0.86970000
    12  H          0.18791400       0.01978100       0.63030000
    13  H          0.19861200       0.36481700       0.01830000
    14  H          0.80138800       0.86481700       0.48170000
    15  H          0.80138800       0.63518300      -0.01830000
    16  H          0.19861200       0.13518300       0.51830000
    17  C          0.19887900       0.34104120       0.28532000
    18  C          0.80112100       0.84104120       0.21468000
    19  C          0.80112100       0.65895880       0.71468000
    20  C          0.19887900       0.15895880       0.78532000
    21  N          0.18672900       0.40058110       0.44316190
    22  N          0.81327100       0.90058110       0.05683810
    23  N          0.81327100       0.59941890       0.55683810
    24  N          0.18672900       0.09941890       0.94316190
    25  H          0.18391400       0.47820000       0.43630000
    26  H          0.81608600       0.97820000       0.06370000
    27  H          0.81608600       0.52180000       0.56370000
    28  H          0.18391400       0.02180000       0.93630000
    29  H          0.19351500       0.36320000       0.55630000
    30  H          0.80648500       0.86320000       0.94370000
    31  H          0.80648500       0.63680000       0.44370000
    32  H          0.19351500       0.13680000       0.05630000
    33  N          0.18048900       0.66371110       0.27692000
    34  N          0.81951100       0.16371110       0.22308000
    35  N          0.81951100       0.33628890       0.72308000
    36  N          0.18048900       0.83628890       0.77692000
    37  C          0.09527100       0.71225120       0.25802000
    38  C          0.90472900       0.21225120       0.24198000
    39  C          0.90472900       0.28774880       0.74198000
    40  C          0.09527100       0.78774880       0.75802000
    41  C          0.08631110       0.83275130       0.25832000
    42  C          0.91368890       0.33275130       0.24168000
    43  C          0.91368890       0.16724870       0.74168000
    44  C          0.08631110       0.66724870       0.75832000
    45  H          0.02530000       0.86520000       0.24300000
    46  H          0.97470000       0.36520000       0.25700000
    47  H          0.97470000       0.13480000       0.75700000
    48  H          0.02530000       0.63480000       0.74300000
    49  N          0.15928900       0.90567110       0.27892000
    50  N          0.84071100       0.40567110       0.22108000
    51  N          0.84071100       0.09432890       0.72108000
    52  N          0.15928900       0.59432890       0.77892000
    53  C          0.24413100       0.85715120       0.29892000
    54  C          0.75586900       0.35715120       0.20108000
    55  C          0.75586900       0.14284880       0.70108000
    56  C          0.24413100       0.64284880       0.79892000
    57  C          0.25347100       0.73634130       0.29622000
    58  C          0.74652900       0.23634130       0.20378000
    59  C          0.74652900       0.26365870       0.70378000
    60  C          0.25347100       0.76365870       0.79622000
    61  H          0.31450000       0.70400000       0.30860000
    62  H          0.68550000       0.20400000       0.19140000
    63  H          0.68550000       0.29600000       0.69140000
    64  H          0.31450000       0.79600000       0.80860000
    65  C          0.01263120       0.63250150       0.23723000
    66  C          0.98736880       0.13250150       0.26277000
    67  C          0.98736880       0.36749850       0.76277000
    68  C          0.01263120       0.86749850       0.73723000
    69  H          0.00980000       0.58720000       0.35230000
    70  H         -0.00980000       0.08720000       0.14770000
    71  H         -0.00980000       0.41280000       0.64770000
    72  H          0.00980000       0.91280000       0.85230000
    73  H          0.01850000       0.57930000       0.13200000
    74  H          0.98150000       0.07930000       0.36800000
    75  H          0.98150000       0.42070000       0.86800000
    76  H          0.01850000       0.92070000       0.63200000
    77  H          0.95550000       0.67880000       0.21350000
    78  H          0.04450000       0.17880000       0.28650000
    79  H          0.04450000       0.32120000       0.78650000
    80  H          0.95550000       0.82120000       0.71350000
    81  C          0.32779110       0.93550140       0.32563000
    82  C          0.67220890       0.43550140       0.17437000
    83  C          0.67220890       0.06449860       0.67437000
    84  C          0.32779110       0.56449860       0.82563000
    85  H          0.35460000       0.93130000       0.45600000
    86  H          0.64540000       0.43130000       0.04400000
    87  H          0.64540000       0.06870000       0.54400000
    88  H          0.35460000       0.56870000       0.95600000
    89  H          0.30900000       0.01600000       0.29550000
    90  H          0.69100000       0.51600000       0.20450000
    91  H          0.69100000       0.98400000       0.70450000
    92  H          0.30900000       0.48400000       0.79550000
    93  H          0.37450000       0.91040000       0.24290000
    94  H          0.62550000       0.41040000       0.25710000
    95  H          0.62550000       0.08960000       0.75710000
    96  H          0.37450000       0.58960000       0.74290000
    97  N          0.45878900       0.57808110       0.36760190
    98  N          0.54121100       0.07808110       0.13239810
    99  N          0.54121100       0.42191890       0.63239810
   100  N          0.45878900       0.92191890       0.86760190
   101  C          0.52933110       0.61161130       0.49152000
   102  C          0.47066890       0.11161130       0.00848000
   103  C          0.47066890       0.38838870       0.50848000
   104  C          0.52933110       0.88838870      -0.00848000
   105  C          0.43063100       0.46758140       0.37852000
   106  C          0.56936900       0.96758140       0.12148000
   107  C          0.56936900       0.53241860       0.62148000
   108  C          0.43063100       0.03241860       0.87852000
   109  H          0.38060000       0.44170000       0.29280000
   110  H          0.61940000       0.94170000       0.20720000
   111  H          0.61940000       0.55830000       0.70720000
   112  H          0.38060000       0.05830000       0.79280000
   113  C          0.56272000       0.73541170       0.48293000
   114  C          0.43728000       0.23541170       0.01707000
   115  C          0.43728000       0.26458830       0.51707000
   116  C          0.56272000       0.76458830      -0.01707000
   117  H          0.62650000       0.74100000       0.54340000
   118  H          0.37350000       0.24100000       0.95660000
   119  H          0.37350000       0.25900000       0.45660000
   120  H          0.62650000       0.75900000       0.04340000
   121  H          0.52140000       0.78630000       0.54780000
   122  H          0.47860000       0.28630000       0.95220000
   123  H          0.47860000       0.21370000       0.45220000
   124  H          0.52140000       0.71370000       0.04780000
   125  H          0.56200000       0.75980000       0.35190000
   126  H          0.43800000       0.25980000       0.14810000
   127  H          0.43800000       0.24020000       0.64810000
   128  H          0.56200000       0.74020000       0.85190000
