data_GIGLOX
_symmetry_space_group_name_H-M    'P1'
_symmetry_Int_Tables_number       1
loop_
_symmetry_equiv_pos_site_id
_symmetry_equiv_pos_as_xyz
1 x,y,z
_cell_length_a                   14.6596
_cell_length_b                   15.1116
_cell_length_c                   9.3175
_cell_angle_alpha                92.292
_cell_angle_beta                 99.712
_cell_angle_gamma                99.482
loop_
_atom_site_label
_atom_site_type_symbol
_atom_site_fract_x
_atom_site_fract_y
_atom_site_fract_z
     1  I          0.84349000       0.07401000       0.59341000
     2  I          0.15651000       0.92599000       0.40659000
     3  I          0.67219000       0.02491000       0.67762000
     4  I          0.32781000       0.97509000       0.32238000
     5  I          0.00271000       0.37071000       0.44772000
     6  I         -0.00271000       0.62929000       0.55228000
     7  I         -0.00601000       0.44621000       0.17662000
     8  I          0.00601000       0.55379000       0.82338000
     9  S          0.01934000       0.11753000       0.48296000
    10  S          0.98066000       0.88247000       0.51704000
    11  S          0.00774000       0.31043000       0.72756000
    12  S         -0.00774000       0.68957000       0.27244000
    13  O          0.33361100       0.34011000       0.53461700
    14  O          0.66638900       0.65989000       0.46538300
    15  O          0.10031000       0.08909000       0.11381500
    16  O          0.89969000       0.91091000       0.88618500
    17  N          0.18241100       0.22079000       0.60501600
    18  N          0.81758900       0.77921000       0.39498400
    19  N          0.05851000       0.16779000       0.84601500
    20  N          0.94149000       0.83221000       0.15398500
    21  C          0.09421300       0.18911100       0.60661900
    22  C          0.90578700       0.81088900       0.39338100
    23  C          0.05501200       0.21911100       0.73541900
    24  C          0.94498800       0.78088900       0.26458100
    25  C          0.24901300       0.27861200       0.71842100
    26  C          0.75098700       0.72138800       0.28157900
    27  C          0.28721600       0.36041500       0.65302500
    28  C          0.71278400       0.63958500       0.34697500
    29  C          0.26841600       0.28791500       0.42532500
    30  C          0.73158400       0.71208500       0.57467500
    31  C          0.22741500       0.19911400       0.47362400
    32  C          0.77258500       0.80088600       0.52637600
    33  C          0.01041300       0.18081200       0.96672100
    34  C         -0.01041300       0.81918800       0.03327900
    35  C          0.06951500       0.17511400       0.11102300
    36  C          0.93048500       0.82488600       0.88897700
    37  C          0.15741600       0.08561400       0.00592500
    38  C          0.84258400       0.91438600      -0.00592500
    39  C          0.09571300       0.08161200       0.85672000
    40  C          0.90428700       0.91838800       0.14328000
    41  H          0.21540000       0.29450000       0.81110000
    42  H          0.78460000       0.70550000       0.18890000
    43  H          0.30790000       0.24450000       0.76410000
    44  H          0.69210000       0.75550000       0.23590000
    45  H          0.33680000       0.40780000       0.73460000
    46  H          0.66320000       0.59220000       0.26540000
    47  H          0.22860000       0.39650000       0.61340000
    48  H          0.77140000       0.60350000       0.38660000
    49  H          0.20790000       0.32390000       0.38940000
    50  H          0.79210000       0.67610000       0.61060000
    51  H          0.29840000       0.27820000       0.32640000
    52  H          0.70160000       0.72180000       0.67360000
    53  H          0.17590000       0.15790000       0.38560000
    54  H          0.82410000       0.84210000       0.61440000
    55  H          0.28410000       0.15980000       0.50300000
    56  H          0.71590000       0.84020000       0.49700000
    57  H         -0.01260000       0.24620000       0.96180000
    58  H          0.01260000       0.75380000       0.03820000
    59  H          0.94750000       0.12930000       0.95670000
    60  H          0.05250000       0.87070000       0.04330000
    61  H          0.03210000       0.18460000       0.20110000
    62  H          0.96790000       0.81540000       0.79890000
    63  H          0.13160000       0.23060000       0.12830000
    64  H          0.86840000       0.76940000       0.87170000
    65  H          0.21270000       0.14390000       0.02080000
    66  H          0.78730000       0.85610000       0.97920000
    67  H          0.19110000       0.02560000       0.01910000
    68  H          0.80890000       0.97440000       0.98090000
    69  H          0.03960000       0.02290000       0.84270000
    70  H          0.96040000       0.97710000       0.15730000
    71  H          0.13780000       0.07320000       0.77040000
    72  H          0.86220000       0.92680000       0.22960000
    73  I          0.40821000       0.40851000       0.11322000
    74  I          0.59179000       0.59149000       0.88678000
    75  I          0.22241000       0.42471000       0.07092000
    76  I          0.77759000       0.57529000       0.92908000
    77  I          0.45751000       0.13741000      -0.00092000
    78  I          0.54249000       0.86259000       0.00092000
    79  I          0.41961000       0.07061000       0.70808000
    80  I          0.58039000       0.92939000       0.29192000
    81  S          0.60424000       0.39644000       0.12616000
    82  S          0.39576000       0.60356000       0.87384000
    83  S          0.48724000       0.19604000       0.29506000
    84  S          0.51276000       0.80396000       0.70494000
    85  O          0.80911000       0.15049000       0.07251600
    86  O          0.19089000       0.84951000       0.92748400
    87  O          0.69391300       0.35821100       0.74461900
    88  O          0.30608700       0.64178900       0.25538100
    89  N          0.69811000       0.26359000       0.18351600
    90  N          0.30189000       0.73641000       0.81648400
    91  N          0.60801200       0.32611100       0.45852000
    92  N          0.39198800       0.67388900       0.54148000
    93  C          0.63371300       0.30831300       0.21312000
    94  C          0.36628700       0.69168700       0.78688000
    95  C          0.57921200       0.27641200       0.33232100
    96  C          0.42078800       0.72358800       0.66767900
    97  C          0.73011500       0.19371400       0.27162200
    98  C          0.26988500       0.80628600       0.72837800
    99  C          0.74531500       0.12001400       0.17052400
   100  C          0.25468500       0.87998600       0.82947600
   101  C          0.76711600       0.21311500      -0.01472500
   102  C          0.23288400       0.78688500       0.01472500
   103  C          0.75501400       0.29131300       0.07032200
   104  C          0.24498600       0.70868700       0.92967800
   105  C          0.55281900       0.31321700       0.58013000
   106  C          0.44718100       0.68678300       0.41987000
   107  C          0.61062100       0.28861900       0.69463300
   108  C          0.38937900       0.71138100       0.30536700
   109  C          0.75181900       0.36611700       0.62633000
   110  C          0.24818100       0.63388300       0.37367000
   111  C          0.69561600       0.39231500       0.49642500
   112  C          0.30438400       0.60768500       0.50357500
   113  H          0.79540000       0.22040000       0.34830000
   114  H          0.20460000       0.77960000       0.65170000
   115  H          0.67760000       0.16850000       0.34110000
   116  H          0.32240000       0.83150000       0.65890000
   117  H          0.67640000       0.08900000       0.10420000
   118  H          0.32360000       0.91100000       0.89580000
   119  H          0.77090000       0.06580000       0.23280000
   120  H          0.22910000       0.93420000       0.76720000
   121  H          0.81010000       0.23340000       0.90290000
   122  H          0.18990000       0.76660000       0.09710000
   123  H          0.69820000       0.17940000       0.92740000
   124  H          0.30180000       0.82060000       0.07260000
   125  H          0.82360000       0.33100000       0.12160000
   126  H          0.17640000       0.66900000       0.87840000
   127  H          0.71990000       0.33820000      -0.00130000
   128  H          0.28010000       0.66180000       0.00130000
   129  H          0.48850000       0.26180000       0.54680000
   130  H          0.51150000       0.73820000       0.45320000
   131  H          0.52920000       0.37480000       0.61340000
   132  H          0.47080000       0.62520000       0.38660000
   133  H          0.57510000       0.26980000       0.78710000
   134  H          0.42490000       0.73020000       0.21290000
   135  H          0.63530000       0.22510000       0.66050000
   136  H          0.36470000       0.77490000       0.33950000
   137  H          0.77320000       0.30200000       0.60290000
   138  H          0.22680000       0.69800000       0.39710000
   139  H          0.81560000       0.40600000       0.66160000
   140  H          0.18440000       0.59400000       0.33840000
   141  H          0.73350000       0.39430000       0.40310000
   142  H          0.26650000       0.60570000       0.59690000
   143  H          0.68010000       0.45990000       0.51410000
   144  H          0.31990000       0.54010000       0.48590000
