data_GIKQEZ
_symmetry_space_group_name_H-M    'P1'
_symmetry_Int_Tables_number       1
loop_
_symmetry_equiv_pos_site_id
_symmetry_equiv_pos_as_xyz
1 x,y,z
_cell_length_a                   15.05507
_cell_length_b                   5.28382
_cell_length_c                   11.18745
_cell_angle_alpha                90.0
_cell_angle_beta                 111.3353
_cell_angle_gamma                90.0
loop_
_atom_site_label
_atom_site_type_symbol
_atom_site_fract_x
_atom_site_fract_y
_atom_site_fract_z
     1  Br         0.34177200       0.06668400       0.35475200
     2  Br         0.65822800       0.56668400       0.14524800
     3  Br         0.65822800       0.93331600       0.64524800
     4  Br         0.34177200       0.43331600       0.85475200
     5  F          0.53285800       0.18662000       0.32895110
     6  F          0.46714200       0.68662000       0.17104890
     7  F          0.46714200       0.81338000       0.67104890
     8  F          0.53285800       0.31338000       0.82895110
     9  C          0.43209130       0.31663000       0.43658160
    10  C          0.56790870       0.81663000       0.06341840
    11  C          0.56790870       0.68337000       0.56341840
    12  C          0.43209130       0.18337000       0.93658160
    13  C          0.51517140       0.34334000       0.41223170
    14  C          0.48482860       0.84334000       0.08776830
    15  C          0.48482860       0.65666000       0.58776830
    16  C          0.51517140       0.15666000       0.91223170
    17  F          0.33810800       0.46162000       0.55079110
    18  F          0.66189200       0.96162000       0.94920890
    19  F          0.66189200       0.53838000       0.44920890
    20  F          0.33810800       0.03838000       0.05079110
    21  C          0.41858130       0.47783000       0.52550180
    22  C          0.58141870      -0.02217000       0.97449820
    23  C          0.58141870       0.52217000       0.47449820
    24  C          0.41858130       0.02217000       0.02550180
    25  C          0.02623130       0.08233000       0.02867180
    26  C          0.97376870       0.58233000       0.47132820
    27  C          0.97376870       0.91767000       0.97132820
    28  C          0.02623130       0.41767000       0.52867180
    29  N          0.21084120       0.66993000       0.23158160
    30  N          0.78915880       0.16993000       0.26841840
    31  N          0.78915880       0.33007000       0.76841840
    32  N          0.21084120       0.83007000       0.73158160
    33  C          0.21702150       0.56804000       0.12582000
    34  C          0.78297850       0.06804000       0.37418000
    35  C          0.78297850       0.43196000       0.87418000
    36  C          0.21702150       0.93196000       0.62582000
    37  H          0.26470000       0.63080000       0.09660000
    38  H          0.73530000       0.13080000       0.40340000
    39  H          0.73530000       0.36920000       0.90340000
    40  H          0.26470000       0.86920000       0.59660000
    41  C          0.14371140       0.57574000       0.27080190
    42  C          0.85628860       0.07574000       0.22919810
    43  C          0.85628860       0.42426000       0.72919810
    44  C          0.14371140       0.92426000       0.77080190
    45  H          0.13820000       0.64430000       0.34630000
    46  H          0.86180000       0.14430000       0.15370000
    47  H          0.86180000       0.35570000       0.65370000
    48  H          0.13820000       0.85570000       0.84630000
    49  C          0.08867130       0.28153000       0.09775170
    50  C          0.91132870       0.78153000       0.40224830
    51  C          0.91132870       0.71847000       0.90224830
    52  C          0.08867130       0.21847000       0.59775170
    53  C          0.15870140       0.37803000       0.05643190
    54  C          0.84129860       0.87803000       0.44356810
    55  C          0.84129860       0.62197000       0.94356810
    56  C          0.15870140       0.12197000       0.55643190
    57  H          0.16600000       0.31330000       0.98130000
    58  H          0.83400000       0.81330000       0.51870000
    59  H          0.83400000       0.68670000       0.01870000
    60  H          0.16600000       0.18670000       0.48130000
    61  C          0.08217140       0.38553000       0.20826190
    62  C          0.91782860       0.88553000       0.29173810
    63  C          0.91782860       0.61447000       0.79173810
    64  C          0.08217140       0.11447000       0.70826190
    65  H          0.03560000       0.32560000       0.24030000
    66  H          0.96440000       0.82560000       0.25970000
    67  H          0.96440000       0.67440000       0.75970000
    68  H          0.03560000       0.17440000       0.74030000
