data_GIKSEB
_symmetry_space_group_name_H-M    'P1'
_symmetry_Int_Tables_number       1
loop_
_symmetry_equiv_pos_site_id
_symmetry_equiv_pos_as_xyz
1 x,y,z
_cell_length_a                   3.92723
_cell_length_b                   13.231311
_cell_length_c                   18.221216
_cell_angle_alpha                72.6822
_cell_angle_beta                 85.7892
_cell_angle_gamma                83.9002
loop_
_atom_site_label
_atom_site_type_symbol
_atom_site_fract_x
_atom_site_fract_y
_atom_site_fract_z
     1  Br         0.84540130       0.80571400       0.13805300
     2  Br         0.15459870       0.19428600       0.86194700
     3  Br         0.71502140       0.77130400       0.96690700
     4  Br         0.28497860       0.22869600       0.03309300
     5  C          0.56131100       0.01503000       0.07023000
     6  C          0.43868900       0.98497000       0.92977000
     7  H          0.60519400       0.02509900       0.11803100
     8  H          0.39480600       0.97490100       0.88196900
     9  C          0.64821100       0.91723000       0.05703000
    10  C          0.35178900       0.08277000       0.94297000
    11  C          0.59051100       0.90243000       0.98727000
    12  C          0.40948900       0.09757000       0.01273000
    13  Br         0.27347120       0.27758400       0.48163300
    14  Br         0.72652880       0.72241600       0.51836700
    15  Br         0.28918130       0.31565400       0.65634300
    16  Br         0.71081870       0.68434600       0.34365700
    17  C          0.49211100       0.48493000       0.42763000
    18  C          0.50788900       0.51507000       0.57237000
    19  H          0.48562000       0.47433200       0.37841300
    20  H          0.51438000       0.52566800       0.62158700
    21  C          0.40351100       0.40603000       0.49343000
    22  C          0.59648900       0.59397000       0.50657000
    23  C          0.41021100       0.42103000       0.56593000
    24  C          0.58978900       0.57897000       0.43407000
    25  N          0.11841200       0.96017000       0.76942000
    26  N          0.88158800       0.03983000       0.23058000
    27  C          0.26501400       0.88846000       0.73643000
    28  C          0.73498600       0.11154000       0.26357000
    29  H          0.39611800       0.82872800       0.76753100
    30  H          0.60388200       0.17127200       0.23246900
    31  C          0.23971200       0.89506000       0.66003000
    32  C          0.76028800       0.10494000       0.33997000
    33  H          0.34750300       0.84073500       0.63981400
    34  H          0.65249700       0.15926500       0.36018600
    35  C          0.05341100       0.98286000       0.61313000
    36  C          0.94658900       0.01714000       0.38687000
    37  C          0.89958800       0.05914000       0.64693000
    38  C          0.10041200       0.94086000       0.35307000
    39  H          0.76983300       0.12035000       0.61703700
    40  H          0.23016700       0.87965000       0.38296300
    41  C          0.93808700       0.04474000       0.72393000
    42  C          0.06191300       0.95526000       0.27607000
    43  H          0.83146300       0.09721800       0.74602500
    44  H          0.16853700       0.90278200       0.25397500
    45  C          0.01771200      -0.00544000       0.53343000
    46  C         -0.01771200       0.00544000       0.46657000
    47  N          0.26361100       0.45293000       0.26452000
    48  N          0.73638900       0.54707000       0.73548000
    49  C          0.12681300       0.37714000       0.24363000
    50  C          0.87318700       0.62286000       0.75637000
    51  H          0.08007100       0.31359200       0.28263300
    52  H          0.91992900       0.68640800       0.71736700
    53  C          0.05041200       0.38554000       0.16943000
    54  C          0.94958800       0.61446000       0.83057000
    55  H          0.95332100       0.32921000       0.15832000
    56  H          0.04667900       0.67079000       0.84168000
    57  C          0.11621100       0.47723000       0.11063000
    58  C          0.88378900       0.52277000       0.88937000
    59  C          0.26321200       0.55724000       0.13123000
    60  C          0.73678800       0.44276000       0.86877000
    61  H          0.31673200       0.62099600       0.09330300
    62  H          0.68326800       0.37900400       0.90669700
    63  C          0.32751300       0.54114000       0.20753000
    64  C          0.67248700       0.45886000       0.79247000
    65  H          0.42336600       0.59608900       0.22065300
    66  H          0.57663400       0.40391100       0.77934700
    67  C          0.03451100       0.49304000       0.03223000
    68  C          0.96548900       0.50696000       0.96777000
