data_GIKVEB
_symmetry_space_group_name_H-M    'P1'
_symmetry_Int_Tables_number       1
loop_
_symmetry_equiv_pos_site_id
_symmetry_equiv_pos_as_xyz
1 x,y,z
_cell_length_a                   16.9895
_cell_length_b                   9.7453
_cell_length_c                   15.4435
_cell_angle_alpha                90.0
_cell_angle_beta                 117.405
_cell_angle_gamma                90.0
loop_
_atom_site_label
_atom_site_type_symbol
_atom_site_fract_x
_atom_site_fract_y
_atom_site_fract_z
     1  S          0.17271000       0.11342000       0.50251000
     2  S          0.67271000       0.61342000       0.50251000
     3  S          0.82729000       0.11342000      -0.00251000
     4  S          0.32729000       0.61342000      -0.00251000
     5  S          0.82729000       0.88658000       0.49749000
     6  S          0.32729000       0.38658000       0.49749000
     7  S          0.17271000       0.88658000       0.00251000
     8  S          0.67271000       0.38658000       0.00251000
     9  C          0.09314000       0.25286000       0.46234000
    10  C          0.59314000       0.75286000       0.46234000
    11  C          0.90686000       0.25286000       0.03766000
    12  C          0.40686000       0.75286000       0.03766000
    13  C          0.90686000       0.74714000       0.53766000
    14  C          0.40686000       0.24714000       0.53766000
    15  C          0.09314000       0.74714000       0.96234000
    16  C          0.59314000       0.24714000       0.96234000
    17  C          0.10604000       0.95774000       0.46174000
    18  C          0.60604000       0.45774000       0.46174000
    19  C          0.89396000       0.95774000       0.03826000
    20  C          0.39396000       0.45774000       0.03826000
    21  C          0.89396000       0.04226000       0.53826000
    22  C          0.39396000       0.54226000       0.53826000
    23  C          0.10604000       0.04226000       0.96174000
    24  C          0.60604000       0.54226000       0.96174000
    25  C          0.05124000       0.94404000       0.35134000
    26  C          0.55124000       0.44404000       0.35134000
    27  C          0.94876000       0.94404000       0.14866000
    28  C          0.44876000       0.44404000       0.14866000
    29  C          0.94876000       0.05596000       0.64866000
    30  C          0.44876000       0.55596000       0.64866000
    31  C          0.05124000       0.05596000       0.85134000
    32  C          0.55124000       0.55596000       0.85134000
    33  C          0.95986000       0.93854000       0.30975000
    34  C          0.45986000       0.43854000       0.30975000
    35  C          0.04014000       0.93854000       0.19025000
    36  C          0.54014000       0.43854000       0.19025000
    37  C          0.04014000       0.06146000       0.69025000
    38  C          0.54014000       0.56146000       0.69025000
    39  C          0.95986000       0.06146000       0.80975000
    40  C          0.45986000       0.56146000       0.80975000
    41  C          0.09174000       0.93824000       0.29185000
    42  C          0.59174000       0.43824000       0.29185000
    43  C          0.90826000       0.93824000       0.20815000
    44  C          0.40826000       0.43824000       0.20815000
    45  C          0.90826000       0.06176000       0.70815000
    46  C          0.40826000       0.56176000       0.70815000
    47  C          0.09174000       0.06176000       0.79185000
    48  C          0.59174000       0.56176000       0.79185000
    49  C          0.04534000       0.27355000       0.35224000
    50  C          0.54534000       0.77355000       0.35224000
    51  C          0.95466000       0.27355000       0.14776000
    52  C          0.45466000       0.77355000       0.14776000
    53  C          0.95466000       0.72645000       0.64776000
    54  C          0.45466000       0.22645000       0.64776000
    55  C          0.04534000       0.72645000       0.85224000
    56  C          0.54534000       0.22645000       0.85224000
    57  C          0.95166000       0.27786000       0.30184000
    58  C          0.45166000       0.77786000       0.30184000
    59  C          0.04834000       0.27786000       0.19816000
    60  C          0.54834000       0.77786000       0.19816000
    61  C          0.04834000       0.72214000       0.69816000
    62  C          0.54834000       0.22214000       0.69816000
    63  C          0.95166000       0.72214000       0.80184000
    64  C          0.45166000       0.22214000       0.80184000
    65  C          0.09124000       0.27786000       0.29834000
    66  C          0.59124000       0.77786000       0.29834000
    67  C          0.90876000       0.27786000       0.20166000
    68  C          0.40876000       0.77786000       0.20166000
    69  C          0.90876000       0.72214000       0.70166000
    70  C          0.40876000       0.22214000       0.70166000
    71  C          0.09124000       0.72214000       0.79834000
    72  C          0.59124000       0.22214000       0.79834000
    73  O          0.90957000       0.27454000       0.35933000
    74  O          0.40957000       0.77454000       0.35933000
    75  O          0.09043000       0.27454000       0.14067000
    76  O          0.59043000       0.77454000       0.14067000
    77  O          0.09043000       0.72546000       0.64067000
    78  O          0.59043000       0.22546000       0.64067000
    79  O          0.90957000       0.72546000       0.85933000
    80  O          0.40957000       0.22546000       0.85933000
    81  C          0.81506000       0.25898000       0.31135000
    82  C          0.31506000       0.75898000       0.31135000
    83  C          0.18494000       0.25898000       0.18865000
    84  C          0.68494000       0.75898000       0.18865000
    85  C          0.18494000       0.74102000       0.68865000
    86  C          0.68494000       0.24102000       0.68865000
    87  C          0.81506000       0.74102000       0.81135000
    88  C          0.31506000       0.24102000       0.81135000
    89  H          0.12700000       0.34900000       0.49700000
    90  H          0.62700000       0.84900000       0.49700000
    91  H          0.87300000       0.34900000       0.00300000
    92  H          0.37300000       0.84900000       0.00300000
    93  H          0.87300000       0.65100000       0.50300000
    94  H          0.37300000       0.15100000       0.50300000
    95  H          0.12700000       0.65100000      -0.00300000
    96  H          0.62700000       0.15100000      -0.00300000
    97  H          0.04400000       0.23600000       0.48900000
    98  H          0.54400000       0.73600000       0.48900000
    99  H          0.95600000       0.23600000       0.01100000
   100  H          0.45600000       0.73600000       0.01100000
   101  H          0.95600000       0.76400000       0.51100000
   102  H          0.45600000       0.26400000       0.51100000
   103  H          0.04400000       0.76400000       0.98900000
   104  H          0.54400000       0.26400000       0.98900000
   105  H          0.06200000       0.95200000       0.49600000
   106  H          0.56200000       0.45200000       0.49600000
   107  H          0.93800000       0.95200000       0.00400000
   108  H          0.43800000       0.45200000       0.00400000
   109  H          0.93800000       0.04800000       0.50400000
   110  H          0.43800000       0.54800000       0.50400000
   111  H          0.06200000       0.04800000      -0.00400000
   112  H          0.56200000       0.54800000      -0.00400000
   113  H          0.14900000       0.86800000       0.49000000
   114  H          0.64900000       0.36800000       0.49000000
   115  H          0.85100000       0.86800000       0.01000000
   116  H          0.35100000       0.36800000       0.01000000
   117  H          0.85100000       0.13200000       0.51000000
   118  H          0.35100000       0.63200000       0.51000000
   119  H          0.14900000       0.13200000      -0.01000000
   120  H          0.64900000       0.63200000      -0.01000000
   121  H          0.93100000       0.94000000       0.35300000
   122  H          0.43100000       0.44000000       0.35300000
   123  H          0.06900000       0.94000000       0.14700000
   124  H          0.56900000       0.44000000       0.14700000
   125  H          0.06900000       0.06000000       0.64700000
   126  H          0.56900000       0.56000000       0.64700000
   127  H          0.93100000       0.06000000       0.85300000
   128  H          0.43100000       0.56000000       0.85300000
   129  H          0.15700000       0.93500000       0.32100000
   130  H          0.65700000       0.43500000       0.32100000
   131  H          0.84300000       0.93500000       0.17900000
   132  H          0.34300000       0.43500000       0.17900000
   133  H          0.84300000       0.06500000       0.67900000
   134  H          0.34300000       0.56500000       0.67900000
   135  H          0.15700000       0.06500000       0.82100000
   136  H          0.65700000       0.56500000       0.82100000
   137  H          0.16000000       0.27800000       0.33400000
   138  H          0.66000000       0.77800000       0.33400000
   139  H          0.84000000       0.27800000       0.16600000
   140  H          0.34000000       0.77800000       0.16600000
   141  H          0.84000000       0.72200000       0.66600000
   142  H          0.34000000       0.22200000       0.66600000
   143  H          0.16000000       0.72200000       0.83400000
   144  H          0.66000000       0.22200000       0.83400000
   145  H          0.78800000       0.27500000       0.36100000
   146  H          0.28800000       0.77500000       0.36100000
   147  H          0.21200000       0.27500000       0.13900000
   148  H          0.71200000       0.77500000       0.13900000
   149  H          0.21200000       0.72500000       0.63900000
   150  H          0.71200000       0.22500000       0.63900000
   151  H          0.78800000       0.72500000       0.86100000
   152  H          0.28800000       0.22500000       0.86100000
   153  H          0.79700000       0.15900000       0.27300000
   154  H          0.29700000       0.65900000       0.27300000
   155  H          0.20300000       0.15900000       0.22700000
   156  H          0.70300000       0.65900000       0.22700000
   157  H          0.20300000       0.84100000       0.72700000
   158  H          0.70300000       0.34100000       0.72700000
   159  H          0.79700000       0.84100000       0.77300000
   160  H          0.29700000       0.34100000       0.77300000
   161  H          0.78900000       0.34300000       0.25200000
   162  H          0.28900000       0.84300000       0.25200000
   163  H          0.21100000       0.34300000       0.24800000
   164  H          0.71100000       0.84300000       0.24800000
   165  H          0.21100000       0.65700000       0.74800000
   166  H          0.71100000       0.15700000       0.74800000
   167  H          0.78900000       0.65700000       0.75200000
   168  H          0.28900000       0.15700000       0.75200000
   169  C          0.00414000       0.59426000       0.29474000
   170  C          0.50414000       0.09426000       0.29474000
   171  C         -0.00414000       0.59426000       0.20526000
   172  C          0.49586000       0.09426000       0.20526000
   173  C         -0.00414000       0.40574000       0.70526000
   174  C          0.49586000       0.90574000       0.70526000
   175  C          0.00414000       0.40574000       0.79474000
   176  C          0.50414000       0.90574000       0.79474000
   177  C          0.92646000       0.59537000       0.31135000
   178  C          0.42646000       0.09537000       0.31135000
   179  C          0.07354000       0.59537000       0.18865000
   180  C          0.57354000       0.09537000       0.18865000
   181  C          0.07354000       0.40463000       0.68865000
   182  C          0.57354000       0.90463000       0.68865000
   183  C          0.92646000       0.40463000       0.81135000
   184  C          0.42646000       0.90463000       0.81135000
   185  C          0.09144000       0.60076000       0.37924000
   186  C          0.59144000       0.10076000       0.37924000
   187  C          0.90856000       0.60076000       0.12076000
   188  C          0.40856000       0.10076000       0.12076000
   189  C          0.90856000       0.39924000       0.62076000
   190  C          0.40856000       0.89924000       0.62076000
   191  C          0.09144000       0.39924000       0.87924000
   192  C          0.59144000       0.89924000       0.87924000
   193  N          0.86876000       0.59877000       0.32864000
   194  N          0.36876000       0.09877000       0.32864000
   195  N          0.13124000       0.59877000       0.17136000
   196  N          0.63124000       0.09877000       0.17136000
   197  N          0.13124000       0.40123000       0.67136000
   198  N          0.63124000       0.90123000       0.67136000
   199  N          0.86876000       0.40123000       0.82864000
   200  N          0.36876000       0.90123000       0.82864000
   201  N          0.15693000       0.60716000       0.44754000
   202  N          0.65693000       0.10716000       0.44754000
   203  N          0.84307000       0.60716000       0.05246000
   204  N          0.34307000       0.10716000       0.05246000
   205  N          0.84307000       0.39284000       0.55246000
   206  N          0.34307000       0.89284000       0.55246000
   207  N          0.15693000       0.39284000       0.94754000
   208  N          0.65693000       0.89284000       0.94754000
