data_GIMNOI
_symmetry_space_group_name_H-M    'P1'
_symmetry_Int_Tables_number       1
loop_
_symmetry_equiv_pos_site_id
_symmetry_equiv_pos_as_xyz
1 x,y,z
_cell_length_a                   3.66673
_cell_length_b                   9.84169
_cell_length_c                   11.79091
_cell_angle_alpha                94.3097
_cell_angle_beta                 90.6456
_cell_angle_gamma                98.0047
loop_
_atom_site_label
_atom_site_type_symbol
_atom_site_fract_x
_atom_site_fract_y
_atom_site_fract_z
     1  O          0.90823000       0.53830110       0.16444900
     2  O          0.09177000       0.46169890       0.83555100
     3  N          0.64664000       0.55710140       0.24983110
     4  N          0.35336000       0.44289860       0.75016890
     5  H          0.72950000       0.62820000       0.29741600
     6  H          0.27050000       0.37180000       0.70258400
     7  H          0.62350000       0.48120000       0.29171600
     8  H          0.37650000       0.51880000       0.70828400
     9  H          0.41950000       0.56420000       0.22041600
    10  H          0.58050000       0.43580000       0.77958400
    11  O         -0.00017000       0.21189120       0.57491100
    12  O          0.00017000       0.78810880       0.42508900
    13  O          0.23604000       0.96672870       0.09827100
    14  O          0.76396000       0.03327130       0.90172900
    15  O          0.47394000       0.83923880       0.21278110
    16  O          0.52606000       0.16076120       0.78721890
    17  O          0.75233000       0.39273120       0.54036100
    18  O          0.24767000       0.60726880       0.45963900
    19  N          0.82223000       0.27623130       0.51335110
    20  N          0.17777000       0.72376870       0.48664890
    21  N          0.43983000       0.19351130       0.23781110
    22  N          0.56017000       0.80648870       0.76218890
    23  N          0.39963000       0.95039860       0.18695110
    24  N          0.60037000       0.04960140       0.81304890
    25  C          0.68754000       0.20907150       0.40559130
    26  C          0.31246000       0.79092850       0.59440870
    27  N          0.55213000       0.28268130       0.32722110
    28  N          0.44787000       0.71731870       0.67277890
    29  C          0.50644000       0.06862150       0.26517130
    30  C          0.49356000       0.93137850       0.73482870
    31  C          0.66864000       0.07077160       0.37163130
    32  C          0.33136000       0.92922840       0.62836870
    33  H          0.74550000      -0.00120000       0.41021600
    34  H          0.25450000       0.00120000       0.58978400
    35  O          0.69343000       0.65694140       0.00130110
    36  O          0.30657000       0.34305860      -0.00130110
    37  N         -0.00826000       0.71586150       0.93954880
    38  N          0.00826000       0.28413850       0.06045120
    39  H          0.88850000       0.75920000       0.88248200
    40  H          0.11150000       0.24080000       0.11751800
    41  H          0.79560000       0.61420000       0.06620000
    42  H          0.20440000       0.38580000       0.93380000
    43  H          0.10960000       0.64320000       0.90288100
    44  H          0.89040000       0.35680000       0.09711900
    45  H          0.14560000       0.77830000       0.98680000
    46  H          0.85440000       0.22170000       0.01320000
