data_GIMRUQ
_symmetry_space_group_name_H-M    'P1'
_symmetry_Int_Tables_number       1
loop_
_symmetry_equiv_pos_site_id
_symmetry_equiv_pos_as_xyz
1 x,y,z
_cell_length_a                   8.1922
_cell_length_b                   9.5252
_cell_length_c                   14.1012
_cell_angle_alpha                99.53817
_cell_angle_beta                 100.17117
_cell_angle_gamma                100.422
loop_
_atom_site_label
_atom_site_type_symbol
_atom_site_fract_x
_atom_site_fract_y
_atom_site_fract_z
     1  N          0.32632000       0.76756170       0.73417120
     2  N          0.67368000       0.23243830       0.26582880
     3  N          0.95117170       0.77540160       0.47155100
     4  N          0.04882830       0.22459840       0.52844900
     5  N          0.76916160       0.78877150       0.31953100
     6  N          0.23083840       0.21122850       0.68046900
     7  F          0.66511130       0.67927120       0.81547700
     8  F          0.33488870       0.32072880       0.18452300
     9  F          0.69403140       0.47667110       0.73184800
    10  F          0.30596860       0.52332890       0.26815200
    11  F          0.90881130       0.65568140       0.78673800
    12  F          0.09118870       0.34431860       0.21326200
    13  C          0.05372000       0.76878180       0.21814120
    14  C          0.94628000       0.23121820       0.78185880
    15  C          0.97142000       0.66632000       0.13295130
    16  C          0.02858000       0.33368000       0.86704870
    17  C         -0.02177000       0.69842000       0.04061140
    18  C          0.02177000       0.30158000       0.95938860
    19  C          0.06573000       0.83312000       0.03274140
    20  C          0.93427000       0.16688000       0.96725860
    21  C          0.14692000       0.93602000       0.11706140
    22  C          0.85308000       0.06398000       0.88293860
    23  C          0.14142000       0.90397190       0.20922130
    24  C          0.85858000       0.09602810       0.79077870
    25  C          0.04952000       0.73265190       0.31820120
    26  C          0.95048000       0.26734810       0.68179880
    27  C          0.94491190       0.81809180       0.37591110
    28  C          0.05508810       0.18190820       0.62408890
    29  C          0.82194190       0.76150170       0.51927110
    30  C          0.17805810       0.23849830       0.48072890
    31  C          0.66463190       0.79661160       0.48492110
    32  C          0.33536810       0.20338840       0.51507890
    33  C          0.52640190       0.75988160       0.52747110
    34  C          0.47359810       0.24011840       0.47252890
    35  C          0.54168190       0.69839160       0.61016110
    36  C          0.45831810       0.30160840       0.38983890
    37  C          0.70442190       0.67802170       0.65248110
    38  C          0.29557810       0.32197830       0.34751890
    39  C          0.83878190       0.70741180       0.60731110
    40  C          0.16121810       0.29258820       0.39268890
    41  C          0.74142000       0.62168190       0.74650120
    42  C          0.25858000       0.37831810       0.25349880
    43  O          0.47471140       0.82450130       0.32268900
    44  O          0.52528860       0.17549870       0.67731100
    45  O          0.72315150       0.02208120       0.40378900
    46  O          0.27684850       0.97791880       0.59621100
    47  O          0.21627140       0.63242130       0.56525900
    48  O          0.78372860       0.36757870       0.43474100
    49  O          0.35993150       0.51759120       0.69143900
    50  O          0.64006850       0.48240880       0.30856100
    51  S          0.34931500       0.64359400       0.64943300
    52  S          0.65068500       0.35640600       0.35056700
    53  S          0.64516500       0.86881400       0.37846300
    54  S          0.35483500       0.13118600       0.62153700
    55  H          0.91110000       0.57390000       0.13840000
    56  H          0.08890000       0.42610000       0.86160000
    57  H          0.92460000       0.62890000       0.98460000
    58  H          0.07540000       0.37110000       0.01540000
    59  H          0.07180000       0.85440000       0.96980000
    60  H          0.92820000       0.14560000       0.03020000
    61  H          0.20720000       0.02700000       0.11310000
    62  H          0.79280000       0.97300000       0.88690000
    63  H          0.19840000       0.97500000       0.26580000
    64  H          0.80160000       0.02500000       0.73420000
    65  H         -0.00060000       0.62930000       0.30990000
    66  H          0.00060000       0.37070000       0.69010000
    67  H          0.16340000       0.75430000       0.35780000
    68  H          0.83660000       0.24570000       0.64220000
    69  H         -0.01030000       0.92110000       0.38440000
    70  H          0.01030000       0.07890000       0.61560000
    71  H          0.31830000       0.84820000       0.71541500
    72  H          0.68170000       0.15180000       0.28458500
    73  H          0.37330000       0.76620000       0.79011700
    74  H          0.62670000       0.23380000       0.20988300
    75  H          0.03530000       0.74920000       0.49521500
    76  H          0.96470000       0.25080000       0.50478500
    77  H          0.72520000       0.69920000       0.30191400
    78  H          0.27480000       0.30080000       0.69808600
    79  H          0.42020000       0.77710000       0.49810000
    80  H          0.57980000       0.22290000       0.50190000
    81  H          0.94520000       0.69050000       0.63280000
    82  H          0.05480000       0.30950000       0.36720000
    83  C          0.48663000       0.75733000       0.02453150
    84  C          0.51337000       0.24267000       0.97546850
    85  C          0.61263000       0.88893000       0.08562000
    86  C          0.38737000       0.11107000       0.91438000
    87  C          0.42793000       0.64093000       0.07781170
    88  C          0.57207000       0.35907000       0.92218830
    89  O          0.43213000       0.74503000       0.93756120
    90  O          0.56787000       0.25497000       0.06243880
    91  H          0.57210000       0.92520000       0.14280000
    92  H          0.42790000       0.07480000       0.85720000
    93  H          0.63040000       0.96470000       0.04990000
    94  H          0.36960000       0.03530000       0.95010000
    95  H          0.71860000       0.86490000       0.10660000
    96  H          0.28140000       0.13510000       0.89340000
    97  H          0.52620000       0.61230000       0.11220000
    98  H          0.47380000       0.38770000       0.88780000
    99  H          0.36840000       0.68090000       0.12640000
   100  H          0.63160000       0.31910000       0.87360000
   101  H          0.35540000       0.55710000       0.03300000
   102  H          0.64460000       0.44290000       0.96700000
