data_GINKUK
_symmetry_space_group_name_H-M    'P1'
_symmetry_Int_Tables_number       1
loop_
_symmetry_equiv_pos_site_id
_symmetry_equiv_pos_as_xyz
1 x,y,z
_cell_length_a                   3.79633
_cell_length_b                   7.77607
_cell_length_c                   22.483014
_cell_angle_alpha                93.4443
_cell_angle_beta                 94.3383
_cell_angle_gamma                92.3224
loop_
_atom_site_label
_atom_site_type_symbol
_atom_site_fract_x
_atom_site_fract_y
_atom_site_fract_z
     1  Cl         0.71248150       0.13239700       0.94504800
     2  Cl         0.28751850       0.86760300       0.05495200
     3  O          0.07744000       0.41412000       0.88551400
     4  O          0.92256000       0.58588000       0.11448600
     5  O          0.67294000       0.27262000       0.06970600
     6  O          0.32706000       0.72738000       0.93029400
     7  C          0.03536000       0.44903000       0.93862200
     8  C         -0.03536000       0.55097000       0.06137800
     9  C          0.86446000       0.33033000       0.97622200
    10  C          0.13554000       0.66967000       0.02377800
    11  C          0.82876000       0.37683000       0.03447800
    12  C          0.17124000       0.62317000       0.96552200
    13  H          0.66980000       0.31140000       0.10431200
    14  H          0.33020000       0.68860000       0.89568800
    15  Cl         0.30454150       0.15380700       0.54442200
    16  Cl         0.69545850       0.84619300       0.45557800
    17  O         -0.03204000       0.43092000       0.61393600
    18  O          0.03204000       0.56908000       0.38606400
    19  O          0.31464000       0.27762000       0.42231600
    20  O          0.68536000       0.72238000       0.57768400
    21  C         -0.01576000       0.45763000       0.56123800
    22  C          0.01576000       0.54237000       0.43876200
    23  C          0.14116000       0.33973000       0.51849800
    24  C          0.85884000       0.66027000       0.48150200
    25  C          0.16346000       0.37923000       0.46131800
    26  C          0.83654000       0.62077000       0.53868200
    27  H          0.33814000       0.31270000       0.38820000
    28  H          0.66186000       0.68730000       0.61180000
    29  H          0.66186000       0.68870000       0.61220000
    30  H          0.33814000       0.31130000       0.38780000
    31  N          0.60175000       0.31722000       0.18738700
    32  N          0.39825000       0.68278000       0.81261300
    33  N          0.44325000       0.32632000       0.30786700
    34  N          0.55675000       0.67368000       0.69213300
    35  C          0.47376000       0.45333000       0.21394900
    36  C          0.52624000       0.54667000       0.78605100
    37  H          0.43380000       0.55200000       0.19180000
    38  H          0.56620000       0.44800000       0.80820000
    39  C          0.39326000       0.45773000       0.27438900
    40  C          0.60674000       0.54227000       0.72561100
    41  H          0.29970000       0.55920000       0.29140000
    42  H          0.70030000       0.44080000       0.70860000
    43  C          0.58506000       0.18413000       0.28184800
    44  C          0.41494000       0.81587000       0.71815200
    45  C          0.65886000       0.04133000       0.31613900
    46  C          0.34114000       0.95867000       0.68386100
    47  H          0.61120000       0.04460000       0.35710000
    48  H          0.38880000       0.95540000       0.64290000
    49  C          0.79916000       0.89787000       0.29023900
    50  C          0.20084000       0.10213000       0.70976100
    51  H          0.85000000       0.80230000       0.31330000
    52  H          0.15000000       0.19770000       0.68670000
    53  C          0.86876000       0.89197000       0.22886900
    54  C          0.13124000       0.10803000       0.77113100
    55  H         -0.03720000       0.79150000       0.21120000
    56  H          0.03720000       0.20850000       0.78880000
    57  C          0.80226000       0.02863000       0.19491900
    58  C          0.19774000       0.97137000       0.80508100
    59  H          0.85010000       0.02280000       0.15400000
    60  H          0.14990000       0.97720000       0.84600000
    61  C          0.66216000       0.17843000       0.22068800
    62  C          0.33784000       0.82157000       0.77931200
