data_GISDUI
_symmetry_space_group_name_H-M    'P1'
_symmetry_Int_Tables_number       1
loop_
_symmetry_equiv_pos_site_id
_symmetry_equiv_pos_as_xyz
1 x,y,z
_cell_length_a                   7.88726
_cell_length_b                   12.47531
_cell_length_c                   14.661712
_cell_angle_alpha                66.22701
_cell_angle_beta                 74.9972
_cell_angle_gamma                82.1912
loop_
_atom_site_label
_atom_site_type_symbol
_atom_site_fract_x
_atom_site_fract_y
_atom_site_fract_z
     1  O          0.58977150       0.59940100       0.39221100
     2  O          0.41022850       0.40059900       0.60778900
     3  O          0.38775150       0.50663100       0.36987900
     4  O          0.61224850       0.49336900       0.63012100
     5  N          0.84672180       0.51549120       0.27485110
     6  N          0.15327820       0.48450880       0.72514890
     7  C          0.68232000       0.48449140       0.29343130
     8  C          0.31768000       0.51550860       0.70656870
     9  C          0.64512000       0.41203140       0.24976140
    10  C          0.35488000       0.58796860       0.75023860
    11  C          0.77712000       0.37568150       0.18609140
    12  C          0.22288000       0.62431850       0.81390860
    13  C          0.09082000       0.38090160       0.09579140
    14  C          0.90918000       0.61909840       0.90420860
    15  C          0.25562000       0.41723160       0.07874140
    16  C          0.74438000       0.58276840       0.92125860
    17  C          0.28682000       0.48655160       0.12761140
    18  C          0.71318000       0.51344840       0.87238860
    19  C          0.15532000       0.51932150       0.19338130
    20  C          0.84468000       0.48067850       0.80661870
    21  C          0.98422000       0.48298140       0.21127130
    22  C          0.01578000       0.51701860       0.78872870
    23  C          0.94962000       0.41196140       0.16341140
    24  C          0.05038000       0.58803860       0.83658860
    25  C          0.54452000       0.53589140       0.35874130
    26  C          0.45548000       0.46410860       0.64125870
    27  H          0.86330000       0.56251800       0.30251600
    28  H          0.13670000       0.43748200       0.69748400
    29  H          0.52850000       0.38810000       0.26420000
    30  H          0.47150000       0.61190000       0.73580000
    31  H          0.75210000       0.32560000       0.15700000
    32  H          0.24790000       0.67440000       0.84300000
    33  H          0.07080000       0.33450000       0.06200000
    34  H          0.92920000       0.66550000       0.93800000
    35  H          0.34990000       0.39550000       0.03350000
    36  H          0.65010000       0.60450000       0.96650000
    37  H          0.40250000       0.51120000       0.11450000
    38  H          0.59750000       0.48880000       0.88550000
    39  H          0.17860000       0.56560000       0.22640000
    40  H          0.82140000       0.43440000       0.77360000
    41  H          0.29830000       0.54601900       0.40621800
    42  H          0.70170000       0.45398100       0.59378200
    43  O          0.00107150       0.64175100       0.34714100
    44  O         -0.00107150       0.35824900       0.65285900
    45  O          0.16069150       0.60475110       0.46423100
    46  O          0.83930850       0.39524890       0.53576900
    47  N          0.74154180       0.73921120       0.45119110
    48  N          0.25845820       0.26078880       0.54880890
    49  C          0.88992000       0.70550140       0.48319130
    50  C          0.11008000       0.29449860       0.51680870
    51  C          0.91032000       0.72614140       0.56645130
    52  C          0.08968000       0.27385860       0.43354870
    53  C          0.77712000       0.78111150       0.61378140
    54  C          0.22288000       0.21888850       0.38621860
    55  C          0.47422000       0.86973150       0.62801140
    56  C          0.52578000       0.13026850       0.37198860
    57  C          0.32372000       0.89788150       0.59302150
    58  C          0.67628000       0.10211850       0.40697850
    59  C          0.30952000       0.87352150       0.50922140
    60  C          0.69048000       0.12647850       0.49077860
    61  C          0.44522000       0.82010140       0.46165140
    62  C          0.55478000       0.17989860       0.53834860
    63  C          0.60082000       0.79115140       0.49680130
    64  C          0.39918000       0.20884860       0.50319870
    65  C          0.61782000       0.81513140       0.58089130
    66  C          0.38218000       0.18486860       0.41910870
    67  C          0.02882000       0.64568140       0.42510140
    68  C          0.97118000       0.35431860       0.57489860
    69  H          0.73730000       0.72691900       0.39891800
    70  H          0.26270000       0.27308100       0.60108200
    71  H          0.01600000       0.70210000       0.59000000
    72  H          0.98400000       0.29790000       0.41000000
    73  H          0.79170000       0.79670000       0.66950000
    74  H          0.20830000       0.20330000       0.33050000
    75  H          0.48240000       0.88690000       0.68420000
    76  H          0.51760000       0.11310000       0.31580000
    77  H          0.22730000       0.93430000       0.62530000
    78  H          0.77270000       0.06570000       0.37470000
    79  H          0.20370000       0.89460000       0.48550000
    80  H          0.79630000       0.10540000       0.51450000
    81  H          0.43400000       0.80300000       0.40590000
    82  H          0.56600000       0.19700000       0.59410000
    83  S          0.67941600       0.96877400       0.18966300
    84  S          0.32058400       0.03122600       0.81033700
    85  O          0.79371160       0.05360110       0.18376100
    86  O          0.20628840       0.94639890       0.81623900
    87  O          0.49579160      -0.00601890       0.22231900
    88  O          0.50420840       0.00601890       0.77768100
    89  O          0.73845160       0.84886110       0.23828900
    90  O          0.26154840       0.15113890       0.76171100
    91  O          0.48489160       0.78413110       0.16864100
    92  O          0.51510840       0.21586890       0.83135900
    93  O          0.69059170       0.69083100       0.09636100
    94  O          0.30940830       0.30916900       0.90363900
    95  O          0.89200160       0.91344110       0.73736900
    96  O          0.10799840       0.08655890       0.26263100
    97  O          0.90947170       0.10219110       0.68102100
    98  O          0.09052830       0.89780890       0.31897900
    99  O          0.92941160       0.23709110       0.97096900
   100  O          0.07058840       0.76290890       0.02903100
   101  O          0.64569160       0.23611110       0.02533100
   102  O          0.35430840       0.76388890       0.97466900
   103  N          0.61840190       0.78074130       0.10551110
   104  N          0.38159810       0.21925870       0.89448890
   105  N          0.87752180       0.00599130       0.74976890
   106  N          0.12247820      -0.00599130       0.25023110
   107  N          0.78729190       0.19400120      -0.00650110
   108  N          0.21270810       0.80599880       0.00650110
   109  C          0.71252000       0.98489150       0.05707130
   110  C          0.28748000       0.01510850       0.94292870
   111  C          0.69572000       0.89262140       0.02920130
   112  C          0.30428000       0.10737860       0.97079870
   113  C          0.74702000       0.89921140       0.92991870
   114  C          0.25298000       0.10078860       0.07008130
   115  C          0.81982000       0.00040150       0.85536870
   116  C          0.18018000      -0.00040150       0.14463130
   117  C          0.83922000       0.09627150       0.87515870
   118  C          0.16078000       0.90372850       0.12484130
   119  C          0.78152000       0.08587140       0.97596870
   120  C          0.21848000       0.91412860       0.02403130
   121  H          0.73240000       0.83520000       0.91350000
   122  H          0.26760000       0.16480000       0.08650000
   123  H          0.88950000       0.16590000       0.82250000
   124  H          0.11050000       0.83410000       0.17750000
