data_GISXEN
_symmetry_space_group_name_H-M    'P1'
_symmetry_Int_Tables_number       1
loop_
_symmetry_equiv_pos_site_id
_symmetry_equiv_pos_as_xyz
1 x,y,z
_cell_length_a                   6.955715
_cell_length_b                   11.7703
_cell_length_c                   12.2673
_cell_angle_alpha                62.483
_cell_angle_beta                 87.542
_cell_angle_gamma                86.18019
loop_
_atom_site_label
_atom_site_type_symbol
_atom_site_fract_x
_atom_site_fract_y
_atom_site_fract_z
     1  S          0.16167110       0.84585800       0.48735700
     2  S          0.83832890       0.15414200       0.51264300
     3  O          0.18574000       0.75732000       0.43094180
     4  O          0.81426000       0.24268000       0.56905820
     5  C          0.36035000       0.80803000       0.58433000
     6  C          0.63965000       0.19197000       0.41567000
     7  H          0.34960000       0.72360000       0.65170000
     8  H          0.65040000       0.27640000       0.34830000
     9  H          0.36270000       0.86930000       0.61530000
    10  H          0.63730000       0.13070000       0.38470000
    11  H          0.47710000       0.81050000       0.53870000
    12  H          0.52290000       0.18950000       0.46130000
    13  C          0.22675000      -0.00137000       0.37423000
    14  C          0.77325000       0.00137000       0.62577000
    15  H          0.35610000       0.99260000       0.34610000
    16  H          0.64390000       0.00740000       0.65390000
    17  H          0.21910000       0.05720000       0.40870000
    18  H          0.78090000       0.94280000       0.59130000
    19  H          0.14030000       0.02890000       0.30630000
    20  H          0.85970000       0.97110000       0.69370000
    21  B          0.24654000       0.83633000       0.88803000
    22  B          0.75346000       0.16367000       0.11197000
    23  F          0.41472000       0.79054150       0.85523130
    24  F          0.58528000       0.20945850       0.14476870
    25  F          0.09172000       0.81434150       0.83583140
    26  F          0.90828000       0.18565850       0.16416860
    27  N          0.22223000       0.76823190       0.03088170
    28  N          0.77777000       0.23176810       0.96911830
    29  N          0.19903000       0.74712000       0.21868180
    30  N          0.80097000       0.25288000       0.78131820
    31  H          0.19370000       0.76610000       0.27860000
    32  H          0.80630000       0.23390000       0.72140000
    33  N          0.23993000       0.95762000       0.05965180
    34  N          0.76007000       0.04238000       0.94034820
    35  N          0.25563000       0.97882190       0.85600170
    36  N          0.74437000       0.02117810       0.14399830
    37  O          0.27873000       0.06928190       0.64365160
    38  O          0.72127000       0.93071810       0.35634840
    39  C          0.20133000       0.63853000       0.11052000
    40  C          0.79867000       0.36147000       0.88948000
    41  C          0.19634000       0.53363000       0.08933000
    42  C          0.80366000       0.46637000       0.91067000
    43  H          0.20610000       0.54170000       0.01020000
    44  H          0.79390000       0.45830000      -0.01020000
    45  C          0.17605000       0.41603000       0.19084000
    46  C          0.82395000       0.58397000       0.80916000
    47  H          0.17230000       0.34300000       0.17990000
    48  H          0.82770000       0.65700000       0.82010000
    49  C          0.16115000       0.40423000       0.30793000
    50  C          0.83885000       0.59577000       0.69207000
    51  H          0.14880000       0.32310000       0.37390000
    52  H          0.85120000       0.67690000       0.62610000
    53  C          0.16384000       0.50783000       0.33093000
    54  C          0.83616000       0.49217000       0.66907000
    55  H          0.15150000       0.49930000       0.41010000
    56  H          0.84850000       0.50070000       0.58990000
    57  C          0.18613000       0.62623000       0.22882000
    58  C          0.81387000       0.37377000       0.77118000
    59  C          0.22133000       0.82962000       0.10012000
    60  C          0.77867000       0.17038000       0.89988000
    61  C          0.25573000       0.02452000       0.94152000
    62  C          0.74427000       0.97548000       0.05848000
    63  C          0.27883000       0.16442000       0.87452000
    64  C          0.72117000       0.83558000       0.12548000
    65  C          0.28944000       0.25483000       0.91613000
    66  C          0.71056000       0.74517000       0.08387000
    67  H          0.28010000       0.23270000      -0.00070000
    68  H          0.71990000       0.76730000       0.00070000
    69  C          0.31464000       0.38033000       0.82713000
    70  C          0.68536000       0.61967000       0.17287000
    71  H          0.32170000       0.44380000       0.85160000
    72  H          0.67830000       0.55620000       0.14840000
    73  C          0.32924000       0.41323000       0.70433000
    74  C          0.67076000       0.58677000       0.29567000
    75  H          0.34530000       0.49840000       0.64760000
    76  H          0.65470000       0.50160000       0.35240000
    77  C          0.32074000       0.32243000       0.66313000
    78  C          0.67926000       0.67757000       0.33687000
    79  H          0.33240000       0.34430000       0.58000000
    80  H          0.66760000       0.65570000       0.42000000
    81  C          0.29383000       0.19762000       0.75112000
    82  C          0.70617000       0.80238000       0.24888000
    83  C          0.27613000       0.08083000       0.73692000
    84  C          0.72387000       0.91917000       0.26308000
