data_GITQEH
_symmetry_space_group_name_H-M    'P1'
_symmetry_Int_Tables_number       1
loop_
_symmetry_equiv_pos_site_id
_symmetry_equiv_pos_as_xyz
1 x,y,z
_cell_length_a                   9.86982
_cell_length_b                   12.07753
_cell_length_c                   12.93323
_cell_angle_alpha                90.0
_cell_angle_beta                 109.8303
_cell_angle_gamma                90.0
loop_
_atom_site_label
_atom_site_type_symbol
_atom_site_fract_x
_atom_site_fract_y
_atom_site_fract_z
     1  I          0.50000000       0.50000000       0.50000000
     2  I          0.50000000      -0.00000000       0.00000000
     3  I          0.21712500       0.45394400       0.51501400
     4  I          0.78287500       0.95394400       0.98498600
     5  I          0.78287500       0.54605600       0.48498600
     6  I          0.21712500       0.04605600       0.01501400
     7  I         -0.00000000      -0.00000000       0.50000000
     8  I          0.00000000       0.50000000       0.00000000
     9  I          0.72497700       0.91609500       0.35185500
    10  I          0.27502300       0.41609500       0.14814500
    11  I          0.27502300       0.08390500       0.64814500
    12  I          0.72497700       0.58390500       0.85185500
    13  Br         0.18927600       0.77519500       0.30369500
    14  Br         0.81072400       0.27519500       0.19630500
    15  Br         0.81072400       0.22480500       0.69630500
    16  Br         0.18927600       0.72480500       0.80369500
    17  S          0.53191140       0.83914130       0.55222110
    18  S          0.46808860       0.33914130       0.94777890
    19  S          0.46808860       0.16085870       0.44777890
    20  S          0.53191140       0.66085870       0.05222110
    21  S          0.66532150       0.95840110       0.64194130
    22  S          0.33467850       0.45840110       0.85805870
    23  S          0.33467850       0.04159890       0.35805870
    24  S          0.66532150       0.54159890       0.14194130
    25  N          0.93695000       0.94935000       0.75785000
    26  N          0.06305000       0.44935000       0.74215000
    27  N          0.06305000       0.05065000       0.24215000
    28  N          0.93695000       0.55065000       0.25785000
    29  H          0.02150000       0.92110000       0.78630000
    30  H          0.97850000       0.42110000       0.71370000
    31  H          0.97850000       0.07890000       0.21370000
    32  H          0.02150000       0.57890000       0.28630000
    33  H          0.92290000       0.01810000       0.76820000
    34  H          0.07710000       0.51810000       0.73180000
    35  H          0.07710000       0.98190000       0.23180000
    36  H          0.92290000       0.48190000       0.26820000
    37  N          0.30506000       0.75955000       0.58565000
    38  N          0.69494000       0.25955000       0.91435000
    39  N          0.69494000       0.24045000       0.41435000
    40  N          0.30506000       0.74045000       0.08565000
    41  H          0.24970000       0.74000000       0.62140000
    42  H          0.75030000       0.24000000       0.87860000
    43  H          0.75030000       0.26000000       0.37860000
    44  H          0.24970000       0.76000000       0.12140000
    45  H          0.27730000       0.75050000       0.51550000
    46  H          0.72270000       0.25050000       0.98450000
    47  H          0.72270000       0.24950000       0.48450000
    48  H          0.27730000       0.74950000       0.01550000
    49  N          0.47695000       0.81806000       0.74414000
    50  N          0.52305000       0.31806000       0.75586000
    51  N          0.52305000       0.18194000       0.25586000
    52  N          0.47695000       0.68194000       0.24414000
    53  H          0.42400000       0.79920000       0.78210000
    54  H          0.57600000       0.29920000       0.71790000
    55  H          0.57600000       0.20080000       0.21790000
    56  H          0.42400000       0.70080000       0.28210000
    57  H          0.56040000       0.84670000       0.77610000
    58  H          0.43960000       0.34670000       0.72390000
    59  H          0.43960000       0.15330000       0.22390000
    60  H          0.56040000       0.65330000       0.27610000
    61  N          0.84517000       0.78455000       0.68067000
    62  N          0.15483000       0.28455000       0.81933000
    63  N          0.15483000       0.21545000       0.31933000
    64  N          0.84517000       0.71545000       0.18067000
    65  H          0.92820000       0.75360000       0.70800000
    66  H          0.07180000       0.25360000       0.79200000
    67  H          0.07180000       0.24640000       0.29200000
    68  H          0.92820000       0.74640000       0.20800000
    69  H          0.77230000       0.74630000       0.64130000
    70  H          0.22770000       0.24630000       0.85870000
    71  H          0.22770000       0.25370000       0.35870000
    72  H          0.77230000       0.75370000       0.14130000
    73  C          0.43026000       0.80274000       0.63725000
    74  C          0.56974000       0.30274000       0.86275000
    75  C          0.56974000       0.19726000       0.36275000
    76  C          0.43026000       0.69726000       0.13725000
    77  C          0.82976000       0.88765000       0.69864000
    78  C          0.17024000       0.38765000       0.80136000
    79  C          0.17024000       0.11235000       0.30136000
    80  C          0.82976000       0.61235000       0.19864000
