data_GITSOU
_symmetry_space_group_name_H-M    'P1'
_symmetry_Int_Tables_number       1
loop_
_symmetry_equiv_pos_site_id
_symmetry_equiv_pos_as_xyz
1 x,y,z
_cell_length_a                   11.352111
_cell_length_b                   18.466117
_cell_length_c                   9.45729
_cell_angle_alpha                90.0
_cell_angle_beta                 102.890018
_cell_angle_gamma                90.0
loop_
_atom_site_label
_atom_site_type_symbol
_atom_site_fract_x
_atom_site_fract_y
_atom_site_fract_z
     1  P          0.49493400       0.31016200       0.07356400
     2  P          0.50506600       0.81016200       0.42643600
     3  P          0.50506600       0.68983800       0.92643600
     4  P          0.49493400       0.18983800       0.57356400
     5  O          0.55135120       0.31206700       0.23272130
     6  O          0.44864880       0.81206700       0.26727870
     7  O          0.44864880       0.68793300       0.76727870
     8  O          0.55135120       0.18793300       0.73272130
     9  N          0.59150140       0.29011800       0.97451170
    10  N          0.40849860       0.79011800       0.52548830
    11  N          0.40849860       0.70988200       0.02548830
    12  N          0.59150140       0.20988200       0.47451170
    13  N          0.43966140       0.38941800       0.01662170
    14  N          0.56033860       0.88941800       0.48337830
    15  N          0.56033860       0.61058200       0.98337830
    16  N          0.43966140       0.11058200       0.51662170
    17  C          0.30261160       0.23869110       0.90562000
    18  C          0.69738840       0.73869110       0.59438000
    19  C          0.69738840       0.76130890       0.09438000
    20  C          0.30261160       0.26130890       0.40562000
    21  H          0.33410000       0.20200000       0.84710000
    22  H          0.66590000       0.70200000       0.65290000
    23  H          0.66590000       0.79800000       0.15290000
    24  H          0.33410000       0.29800000       0.34710000
    25  H          0.29210000       0.28480000       0.85090000
    26  H          0.70790000       0.78480000       0.64910000
    27  H          0.70790000       0.71520000       0.14910000
    28  H          0.29210000       0.21520000       0.35090000
    29  C          0.36691180       0.43439110       0.09272000
    30  C          0.63308820       0.93439110       0.40728000
    31  C          0.63308820       0.56560890       0.90728000
    32  C          0.36691180       0.06560890       0.59272000
    33  H          0.39110000       0.48560000       0.08630000
    34  H          0.60890000       0.98560000       0.41370000
    35  H          0.60890000       0.51440000       0.91370000
    36  H          0.39110000       0.01440000       0.58630000
    37  H          0.38650000       0.42070000       0.19660000
    38  H          0.61350000       0.92070000       0.30340000
    39  H          0.61350000       0.57930000       0.80340000
    40  H          0.38650000       0.07930000       0.69660000
    41  C          0.68963170       0.33964110       0.96462000
    42  C          0.31036830       0.83964110       0.53538000
    43  C          0.31036830       0.66035890       0.03538000
    44  C          0.68963170       0.16035890       0.46462000
    45  H          0.71120000       0.36840000       0.05510000
    46  H          0.28880000       0.86840000       0.44490000
    47  H          0.28880000       0.63160000       0.94490000
    48  H          0.71120000       0.13160000       0.55510000
    49  H          0.66110000       0.37370000       0.88340000
    50  H          0.33890000       0.87370000       0.61660000
    51  H          0.33890000       0.62630000       0.11660000
    52  H          0.66110000       0.12630000       0.38340000
    53  C          0.18072180       0.21365130       0.93202000
    54  C          0.81927820       0.71365130       0.56798000
    55  C          0.81927820       0.78634870       0.06798000
    56  C          0.18072180       0.28634870       0.43202000
    57  H          0.19210000       0.16740000      -0.01380000
    58  H          0.80790000       0.66740000       0.51380000
    59  H          0.80790000       0.83260000       0.01380000
    60  H          0.19210000       0.33260000       0.48620000
    61  H          0.15110000       0.25000000      -0.00720000
    62  H          0.84890000       0.75000000       0.50720000
    63  H          0.84890000       0.75000000       0.00720000
    64  H          0.15110000       0.25000000       0.49280000
    65  C          0.23232000       0.42905130       0.03723000
    66  C          0.76768000       0.92905130       0.46277000
    67  C          0.76768000       0.57094870       0.96277000
    68  C          0.23232000       0.07094870       0.53723000
    69  H          0.20790000       0.37790000       0.04330000
    70  H          0.79210000       0.87790000       0.45670000
    71  H          0.79210000       0.62210000       0.95670000
    72  H          0.20790000       0.12210000       0.54330000
    73  H          0.19250000       0.45770000       0.10170000
    74  H          0.80750000       0.95770000       0.39830000
    75  H          0.80750000       0.54230000       0.89830000
    76  H          0.19250000       0.04230000       0.60170000
    77  C          0.80035190       0.30123130       0.94143000
    78  C          0.19964810       0.80123130       0.55857000
    79  C          0.19964810       0.69876870       0.05857000
    80  C          0.80035190       0.19876870       0.44143000
    81  H          0.77940000       0.27300000       0.85030000
    82  H          0.22060000       0.77300000       0.64970000
    83  H          0.22060000       0.72700000       0.14970000
    84  H          0.77940000       0.22700000       0.35030000
    85  H          0.82890000       0.26690000       0.02220000
    86  H          0.17110000       0.76690000       0.47780000
    87  H          0.17110000       0.73310000       0.97780000
    88  H          0.82890000       0.23310000       0.52220000
    89  C          0.18682000       0.45470170       0.88483000
    90  C          0.81318000       0.95470170       0.61517000
    91  C          0.81318000       0.54529830       0.11517000
    92  C          0.18682000       0.04529830       0.38483000
    93  H          0.21390000       0.50450000       0.87580000
    94  H          0.78610000       0.00450000       0.62420000
    95  H          0.78610000       0.49550000       0.12420000
    96  H          0.21390000      -0.00450000       0.37580000
    97  H          0.09830000       0.45310000       0.86030000
    98  H          0.90170000       0.95310000       0.63970000
    99  H          0.90170000       0.54690000       0.13970000
   100  H          0.09830000       0.04690000       0.36030000
   101  H          0.21840000       0.42330000       0.81830000
   102  H          0.78160000       0.92330000       0.68170000
   103  H          0.78160000       0.57670000       0.18170000
   104  H          0.21840000       0.07670000       0.31830000
   105  C          0.90122000       0.35382160       0.93303000
   106  C          0.09878000       0.85382160       0.56697000
   107  C          0.09878000       0.64617840       0.06697000
   108  C          0.90122000       0.14617840       0.43303000
   109  H          0.87280000       0.38850000       0.85420000
   110  H          0.12720000       0.88850000       0.64580000
   111  H          0.12720000       0.61150000       0.14580000
   112  H          0.87280000       0.11150000       0.35420000
   113  H          0.97070000       0.32700000       0.91420000
   114  H          0.02930000       0.82700000       0.58580000
   115  H          0.02930000       0.67300000       0.08580000
   116  H          0.97070000       0.17300000       0.41420000
   117  H          0.92540000       0.38000000       0.02510000
   118  H          0.07460000       0.88000000       0.47490000
   119  H          0.07460000       0.62000000       0.97490000
   120  H          0.92540000       0.12000000       0.52510000
   121  C          0.08712000       0.20328170       0.79323000
   122  C          0.91288000       0.70328170       0.70677000
   123  C          0.91288000       0.79671830       0.20677000
   124  C          0.08712000       0.29671830       0.29323000
   125  H          0.07700000       0.24860000       0.73770000
   126  H          0.92300000       0.74860000       0.76230000
   127  H          0.92300000       0.75140000       0.26230000
   128  H          0.07700000       0.25140000       0.23770000
   129  H          0.00990000       0.18960000       0.81580000
   130  H         -0.00990000       0.68960000       0.68420000
   131  H         -0.00990000       0.81040000       0.18420000
   132  H          0.00990000       0.31040000       0.31580000
   133  H          0.11330000       0.16490000       0.73550000
   134  H          0.88670000       0.66490000       0.76450000
   135  H          0.88670000       0.83510000       0.26450000
   136  H          0.11330000       0.33510000       0.23550000
   137  N          0.38836140       0.24885900       0.04412160
   138  N          0.61163860       0.74885900       0.45587840
   139  N          0.61163860       0.75114100       0.95587840
   140  N          0.38836140       0.25114100       0.54412160
   141  H          0.57120000       0.26721400       0.91130000
   142  H          0.42880000       0.76721400       0.58870000
   143  H          0.42880000       0.73278600       0.08870000
   144  H          0.57120000       0.23278600       0.41130000
   145  H          0.40320000       0.21561400       0.08930000
   146  H          0.59680000       0.71561400       0.41070000
   147  H          0.59680000       0.78438600       0.91070000
   148  H          0.40320000       0.28438600       0.58930000
   149  H          0.44020000       0.39981400       0.93730000
   150  H          0.55980000       0.89981400       0.56270000
   151  H          0.55980000       0.60018600       0.06270000
   152  H          0.44020000       0.10018600       0.43730000
   153  Cl         0.57061500       0.57925200       0.33679500
   154  Cl         0.42938500       0.07925200       0.16320500
   155  Cl         0.42938500       0.42074800       0.66320500
   156  Cl         0.57061500       0.92074800       0.83679500
   157  N          0.59638150       0.41617800       0.43816160
   158  N          0.40361850       0.91617800       0.06183840
   159  N          0.40361850       0.58382200       0.56183840
   160  N          0.59638150       0.08382200       0.93816160
   161  H          0.58940000       0.46100000       0.39710000
   162  H          0.41060000       0.96100000       0.10290000
   163  H          0.41060000       0.53900000       0.60290000
   164  H          0.58940000       0.03900000       0.89710000
   165  H          0.54070000       0.41110000       0.49340000
   166  H          0.45930000       0.91110000       0.00660000
   167  H          0.45930000       0.58890000       0.50660000
   168  H          0.54070000       0.08890000      -0.00660000
   169  H          0.58350000       0.38190000       0.36730000
   170  H          0.41650000       0.88190000       0.13270000
   171  H          0.41650000       0.61810000       0.63270000
   172  H          0.58350000       0.11810000       0.86730000
   173  C          0.71912000       0.40734120       0.53042000
   174  C          0.28088000       0.90734120       0.96958000
   175  C          0.28088000       0.59265880       0.46958000
   176  C          0.71912000       0.09265880       0.03042000
   177  H          0.72730000       0.35820000       0.57340000
   178  H          0.27270000       0.85820000       0.92660000
   179  H          0.27270000       0.64180000       0.42660000
   180  H          0.72730000       0.14180000       0.07340000
   181  H          0.73160000       0.44300000       0.61050000
   182  H          0.26840000       0.94300000       0.88950000
   183  H          0.26840000       0.55700000       0.38950000
   184  H          0.73160000       0.05700000       0.11050000
   185  C          0.81332000       0.41804130       0.44393000
   186  C          0.18668000       0.91804130       0.05607000
   187  C          0.18668000       0.58195870       0.55607000
   188  C          0.81332000       0.08195870       0.94393000
   189  H          0.80350000       0.46640000       0.39750000
   190  H          0.19650000       0.96640000       0.10250000
   191  H          0.19650000       0.53360000       0.60250000
   192  H          0.80350000       0.03360000       0.89750000
   193  H          0.80360000       0.38100000       0.36650000
   194  H          0.19640000       0.88100000       0.13350000
   195  H          0.19640000       0.61900000       0.63350000
   196  H          0.80360000       0.11900000       0.86650000
   197  C          0.93943000       0.41183180       0.54334000
   198  C          0.06057000       0.91183180       0.95666000
   199  C          0.06057000       0.58816820       0.45666000
   200  C          0.93943000       0.08816820       0.04334000
   201  H          0.94800000       0.44770000       0.62120000
   202  H          0.05200000       0.94770000       0.87880000
   203  H          0.05200000       0.55230000       0.37880000
   204  H          0.94800000       0.05230000       0.12120000
   205  H          0.00070000       0.42070000       0.48690000
   206  H         -0.00070000       0.92070000       0.01310000
   207  H         -0.00070000       0.57930000       0.51310000
   208  H          0.00070000       0.07930000      -0.01310000
   209  H          0.95030000       0.36310000       0.58530000
   210  H          0.04970000       0.86310000       0.91470000
   211  H          0.04970000       0.63690000       0.41470000
   212  H          0.95030000       0.13690000       0.08530000
