data_GIVYUI
_symmetry_space_group_name_H-M    'P1'
_symmetry_Int_Tables_number       1
loop_
_symmetry_equiv_pos_site_id
_symmetry_equiv_pos_as_xyz
1 x,y,z
_cell_length_a                   12.9903
_cell_length_b                   26.0036
_cell_length_c                   6.1351
_cell_angle_alpha                90.0
_cell_angle_beta                 90.0
_cell_angle_gamma                90.0
loop_
_atom_site_label
_atom_site_type_symbol
_atom_site_fract_x
_atom_site_fract_y
_atom_site_fract_z
     1  O          0.04757800       0.35120400       0.73981820
     2  O          0.45242200       0.64879600       0.23981820
     3  O          0.95242200       0.85120400       0.26018180
     4  O          0.54757800       0.14879600       0.76018180
     5  O          0.95242200       0.64879600       0.26018180
     6  O          0.54757800       0.35120400       0.76018180
     7  O          0.04757800       0.14879600       0.73981820
     8  O          0.45242200       0.85120400       0.23981820
     9  O          0.13569800       0.38780400       0.00751180
    10  O          0.36430200       0.61219600       0.50751180
    11  O          0.86430200       0.88780400      -0.00751180
    12  O          0.63569800       0.11219600       0.49248820
    13  O          0.86430200       0.61219600      -0.00751180
    14  O          0.63569800       0.38780400       0.49248820
    15  O          0.13569800       0.11219600       0.00751180
    16  O          0.36430200       0.88780400       0.50751180
    17  O          0.29349900       0.31608500       0.76064820
    18  O          0.20650100       0.68391500       0.26064820
    19  O          0.70650100       0.81608500       0.23935180
    20  O          0.79349900       0.18391500       0.73935180
    21  O          0.70650100       0.68391500       0.23935180
    22  O          0.79349900       0.31608500       0.73935180
    23  O          0.29349900       0.18391500       0.76064820
    24  O          0.20650100       0.81608500       0.26064820
    25  O          0.40501800       0.31258400       0.03316190
    26  O          0.09498200       0.68741600       0.53316190
    27  O          0.59498200       0.81258400       0.96683810
    28  O          0.90501800       0.18741600       0.46683810
    29  O          0.59498200       0.68741600       0.96683810
    30  O          0.90501800       0.31258400       0.46683810
    31  O          0.40501800       0.18741600       0.03316190
    32  O          0.09498200       0.81258400       0.53316190
    33  C          0.12170100       0.29827500       0.02492000
    34  C          0.37829900       0.70172500       0.52492000
    35  C          0.87829900       0.79827500       0.97508000
    36  C          0.62170100       0.20172500       0.47508000
    37  C          0.87829900       0.70172500       0.97508000
    38  C          0.62170100       0.29827500       0.47508000
    39  C          0.12170100       0.20172500       0.02492000
    40  C          0.37829900       0.79827500       0.52492000
    41  C          0.23078100       0.29897500       0.12162000
    42  C          0.26921900       0.70102500       0.62162000
    43  C          0.76921900       0.79897500       0.87838000
    44  C          0.73078100       0.20102500       0.37838000
    45  C          0.76921900       0.70102500       0.87838000
    46  C          0.73078100       0.29897500       0.37838000
    47  C          0.23078100       0.20102500       0.12162000
    48  C          0.26921900       0.79897500       0.62162000
    49  C          0.25192160       0.25000000       0.25183000
    50  C          0.24807840       0.75000000       0.75183000
    51  C          0.74807840       0.75000000       0.74817000
    52  C          0.75192160       0.25000000       0.24817000
    53  C          0.09949160       0.25000000       0.89157000
    54  C          0.40050840       0.75000000       0.39157000
    55  C          0.90050840       0.75000000       0.10843000
    56  C          0.59949160       0.25000000       0.60843000
    57  C          0.09822100       0.34770500       0.90498000
    58  C          0.40177900       0.65229500       0.40498000
    59  C          0.90177900       0.84770500       0.09502000
    60  C          0.59822100       0.15229500       0.59502000
    61  C          0.90177900       0.65229500       0.09502000
    62  C          0.59822100       0.34770500       0.59502000
    63  C          0.09822100       0.15229500       0.90498000
    64  C          0.40177900       0.84770500       0.40498000
    65  C          0.31110100       0.30967500       0.94968000
    66  C          0.18889900       0.69032500       0.44968000
    67  C          0.68889900       0.80967500       0.05032000
    68  C          0.81110100       0.19032500       0.55032000
    69  C          0.68889900       0.69032500       0.05032000
    70  C          0.81110100       0.30967500       0.55032000
    71  C          0.31110100       0.19032500       0.94968000
    72  C          0.18889900       0.80967500       0.44968000
    73  H          0.02641700       0.25000000       0.84570000
    74  H          0.47358300       0.75000000       0.34570000
    75  H          0.97358300       0.75000000       0.15430000
    76  H          0.52641700       0.25000000       0.65430000
    77  H          0.14121600       0.25000000       0.75770000
    78  H          0.35878400       0.75000000       0.25770000
    79  H          0.85878400       0.75000000       0.24230000
    80  H          0.64121600       0.25000000       0.74230000
    81  H          0.32271700       0.25000000       0.30530000
    82  H          0.17728300       0.75000000       0.80530000
    83  H          0.67728300       0.75000000       0.69470000
    84  H          0.82271700       0.25000000       0.19470000
    85  H          0.07511100       0.29855000       0.14820000
    86  H          0.42488900       0.70145000       0.64820000
    87  H          0.92488900       0.79855000       0.85180000
    88  H          0.57511100       0.20145000       0.35180000
    89  H          0.92488900       0.70145000       0.85180000
    90  H          0.57511100       0.29855000       0.35180000
    91  H          0.07511100       0.20145000       0.14820000
    92  H          0.42488900       0.79855000       0.64820000
    93  H          0.23571000       0.32716000       0.22120000
    94  H          0.26429000       0.67284000       0.72120000
    95  H          0.76429000       0.82716000       0.77880000
    96  H          0.73571000       0.17284000       0.27880000
    97  H          0.76429000       0.67284000       0.77880000
    98  H          0.73571000       0.32716000       0.27880000
    99  H          0.23571000       0.17284000       0.22120000
   100  H          0.26429000       0.82716000       0.72120000
   101  H          0.20601500       0.25000000       0.38030000
   102  H          0.29398500       0.75000000       0.88030000
   103  H          0.79398500       0.75000000       0.61970000
   104  H          0.70601500       0.25000000       0.11970000
   105  H          0.11991400       0.42139000       0.94270000
   106  H          0.38008600       0.57861000       0.44270000
   107  H          0.88008600       0.92139000       0.05730000
   108  H          0.61991400       0.07861000       0.55730000
   109  H          0.88008600       0.57861000       0.05730000
   110  H          0.61991400       0.42139000       0.55730000
   111  H          0.11991400       0.07861000       0.94270000
   112  H          0.38008600       0.92139000       0.44270000
   113  H          0.45061600       0.32058000       0.92170000
   114  H          0.04938400       0.67942000       0.42170000
   115  H          0.54938400       0.82058000       0.07830000
   116  H          0.95061600       0.17942000       0.57830000
   117  H          0.54938400       0.67942000       0.07830000
   118  H          0.95061600       0.32058000       0.57830000
   119  H          0.45061600       0.17942000       0.92170000
   120  H          0.04938400       0.82058000       0.42170000
   121  N          0.87982800       0.51426400       0.09002170
   122  N          0.62017200       0.48573600       0.59002170
   123  N          0.12017200       0.01426400       0.90997830
   124  N          0.37982800       0.98573600       0.40997830
   125  N          0.12017200       0.48573600       0.90997830
   126  N          0.37982800       0.51426400       0.40997830
   127  N          0.87982800       0.98573600       0.09002170
   128  N          0.62017200       0.01426400       0.59002170
   129  C          0.83089110       0.49220600       0.92368000
   130  C          0.66910890       0.50779400       0.42368000
   131  C          0.16910890       0.99220600       0.07632000
   132  C          0.33089110       0.00779400       0.57632000
   133  C          0.16910890       0.50779400       0.07632000
   134  C          0.33089110       0.49220600       0.57632000
   135  C          0.83089110       0.00779400       0.92368000
   136  C          0.66910890       0.99220600       0.42368000
   137  C          0.82108110       0.43989600       0.90137000
   138  C          0.67891890       0.56010400       0.40137000
   139  C          0.17891890       0.93989600       0.09863000
   140  C          0.32108110       0.06010400       0.59863000
   141  C          0.17891890       0.56010400       0.09863000
   142  C          0.32108110       0.43989600       0.59863000
   143  C          0.82108110       0.06010400       0.90137000
   144  C          0.67891890       0.93989600       0.40137000
   145  C          0.86390110       0.40880600       0.05853000
   146  C          0.63609890       0.59119400       0.55853000
   147  C          0.13609890       0.90880600       0.94147000
   148  C          0.36390110       0.09119400       0.44147000
   149  C          0.13609890       0.59119400       0.94147000
   150  C          0.36390110       0.40880600       0.44147000
   151  C          0.86390110       0.09119400       0.05853000
   152  C          0.63609890       0.90880600       0.55853000
   153  C          0.91346120       0.43078500       0.23192000
   154  C          0.58653880       0.56921500       0.73192000
   155  C          0.08653880       0.93078500       0.76808000
   156  C          0.41346120       0.06921500       0.26808000
   157  C          0.08653880       0.56921500       0.76808000
   158  C          0.41346120       0.43078500       0.26808000
   159  C          0.91346120       0.06921500       0.23192000
   160  C          0.58653880       0.93078500       0.73192000
   161  C          0.92122100       0.48402500       0.24462000
   162  C          0.57877900       0.51597500       0.74462000
   163  C          0.07877900       0.98402500       0.75538000
   164  C          0.42122100       0.01597500       0.25538000
   165  C          0.07877900       0.51597500       0.75538000
   166  C          0.42122100       0.48402500       0.25538000
   167  C          0.92122100       0.01597500       0.24462000
   168  C          0.57877900       0.98402500       0.74462000
   169  C          0.97382100       0.51104500       0.42062000
   170  C          0.52617900       0.48895500       0.92062000
   171  C          0.02617900       0.01104500       0.57938000
   172  C          0.47382100       0.98895500       0.07938000
   173  C          0.02617900       0.48895500       0.57938000
   174  C          0.47382100       0.51104500       0.07938000
   175  C          0.97382100       0.98895500       0.42062000
   176  C          0.52617900       0.01104500       0.92062000
   177  H          0.94501200       0.41147000       0.33930000
   178  H          0.55498800       0.58853000       0.83930000
   179  H          0.05498800       0.91147000       0.66070000
   180  H          0.44501200       0.08853000       0.16070000
   181  H          0.05498800       0.58853000       0.66070000
   182  H          0.44501200       0.41147000       0.16070000
   183  H          0.94501200       0.08853000       0.33930000
   184  H          0.55498800       0.91147000       0.83930000
   185  H          0.96891100       0.54817000       0.41420000
   186  H          0.53108900       0.45183000       0.91420000
   187  H          0.03108900       0.04817000       0.58580000
   188  H          0.46891100       0.95183000       0.08580000
   189  H          0.03108900       0.45183000       0.58580000
   190  H          0.46891100       0.54817000       0.08580000
   191  H          0.96891100       0.95183000       0.41420000
   192  H          0.53108900       0.04817000       0.91420000
   193  H          0.85991000       0.37336000       0.04720000
   194  H          0.64009000       0.62664000       0.54720000
   195  H          0.14009000       0.87336000       0.95280000
   196  H          0.35991000       0.12664000       0.45280000
   197  H          0.14009000       0.62664000       0.95280000
   198  H          0.35991000       0.37336000       0.45280000
   199  H          0.85991000       0.12664000       0.04720000
   200  H          0.64009000       0.87336000       0.54720000
   201  H          0.78711300       0.42606000       0.77470000
   202  H          0.71288700       0.57394000       0.27470000
   203  H          0.21288700       0.92606000       0.22530000
   204  H          0.28711300       0.07394000       0.72530000
   205  H          0.21288700       0.57394000       0.22530000
   206  H          0.28711300       0.42606000       0.72530000
   207  H          0.78711300       0.07394000       0.77470000
   208  H          0.71288700       0.92606000       0.27470000
   209  H          0.80251200       0.51587000       0.81380000
   210  H          0.69748800       0.48413000       0.31380000
   211  H          0.19748800       0.01587000       0.18620000
   212  H          0.30251200       0.98413000       0.68620000
   213  H          0.19748800       0.48413000       0.18620000
   214  H          0.30251200       0.51587000       0.68620000
   215  H          0.80251200       0.98413000       0.81380000
   216  H          0.69748800       0.01587000       0.31380000
