data_GIVZUG
_symmetry_space_group_name_H-M    'P1'
_symmetry_Int_Tables_number       1
loop_
_symmetry_equiv_pos_site_id
_symmetry_equiv_pos_as_xyz
1 x,y,z
_cell_length_a                   7.9821
_cell_length_b                   12.8761
_cell_length_c                   13.4651
_cell_angle_alpha                108.991
_cell_angle_beta                 104.441
_cell_angle_gamma                95.811
loop_
_atom_site_label
_atom_site_type_symbol
_atom_site_fract_x
_atom_site_fract_y
_atom_site_fract_z
     1  S          0.30034700       0.54874500       0.13365500
     2  S          0.69965300       0.45125500       0.86634500
     3  S          0.04708700       0.63130500       0.25107500
     4  S          0.95291300       0.36869500       0.74892500
     5  S          0.02897700       0.30403500       0.01097500
     6  S          0.97102300       0.69596500      -0.01097500
     7  S          0.77371300       0.39803500       0.12060500
     8  S          0.22628700       0.60196500       0.87939500
     9  S          0.64581700       0.69554500       0.15467500
    10  S          0.35418300       0.30445500       0.84532500
    11  S          0.80069200       0.06937500       0.90960400
    12  S          0.19930800       0.93062500       0.09039600
    13  S          0.52569200       0.17817500       0.04370500
    14  S          0.47430800       0.82182500       0.95629500
    15  N          0.55103000       0.86602000       0.28762000
    16  N          0.44897000       0.13398000       0.71238000
    17  C          0.09793000       0.52132000       0.15672000
    18  C          0.90207000       0.47868000       0.84328000
    19  C          0.34863000       0.69082000       0.21862000
    20  C          0.65137000       0.30918000       0.78138000
    21  C          0.23083000       0.72712000       0.27232000
    22  C          0.76917000       0.27288000       0.72768000
    23  C         -0.01833000       0.41872000       0.10412000
    24  C          0.01833000       0.58128000       0.89588000
    25  C          0.83667000       0.21092000      -0.00902000
    26  C          0.16333000       0.78908000       0.00902000
    27  C          0.71997000       0.25502000       0.04292000
    28  C          0.28003000       0.74498000       0.95708000
    29  C          0.51593000       0.75802000       0.22492000
    30  C          0.48407000       0.24198000       0.77508000
    31  C          0.70824000       0.94362000       0.30143000
    32  C          0.29176000       0.05638000       0.69857000
    33  C          0.00184000       0.05942000       0.87227000
    34  C         -0.00184000       0.94058000       0.12773000
    35  C          0.62046000       0.14343000       0.16333000
    36  C          0.37954000       0.85657000       0.83667000
    37  H          0.47943700       0.89372300       0.31132200
    38  H          0.52056300       0.10627700       0.68867800
    39  H          0.23943500       0.80072300       0.31952200
    40  H          0.76056500       0.19927700       0.68047800
    41  H          0.70643800       0.01362600       0.35312400
    42  H          0.29356200      -0.01362600       0.64687600
    43  H          0.70764000       0.95002600       0.23222700
    44  H          0.29236000       0.04997400       0.76777300
    45  H          0.81234400       0.91402700       0.32532600
    46  H          0.18765600       0.08597300       0.67467400
    47  H         -0.01414000       0.98127200       0.82877500
    48  H          0.01414000       0.01872800       0.17122500
    49  H          0.01684400       0.10713000       0.83137200
    50  H         -0.01684400       0.89287000       0.16862800
    51  H          0.09954600       0.07862700       0.93497200
    52  H          0.90045400       0.92137300       0.06502800
    53  H          0.52515900       0.10482500       0.17872400
    54  H          0.47484100       0.89517500       0.82127600
    55  H          0.66785700       0.20852900       0.22662700
    56  H          0.33214300       0.79147100       0.77337300
    57  H          0.70445100       0.09783100       0.15042900
    58  H          0.29554900       0.90216900       0.84957100
    59  N          0.25453000       0.21282000       0.20962000
    60  N          0.74547000       0.78718000       0.79038000
    61  N          0.93047000       0.40222000       0.37392000
    62  N          0.06953000       0.59778000       0.62608000
    63  N          0.05663000       0.81112000       0.46942000
    64  N          0.94337000       0.18888000       0.53058000
    65  N          0.68393000      -0.00768000       0.61132000
    66  N          0.31607000       0.00768000       0.38868000
    67  C          0.36653000       0.50332000       0.38302000
    68  C          0.63347000       0.49668000       0.61698000
    69  C          0.53213000       0.50382000       0.35792000
    70  C          0.46787000       0.49618000       0.64208000
    71  C          0.65803000       0.59982000       0.39972000
    72  C          0.34197000       0.40018000       0.60028000
    73  C          0.62893000       0.70292000       0.46802000
    74  C          0.37107000       0.29708000       0.53198000
    75  C          0.46653000       0.70162000       0.49592000
    76  C          0.53347000       0.29838000       0.50408000
    77  C          0.34203000       0.60522000       0.45612000
    78  C          0.65797000       0.39478000       0.54388000
    79  C          0.23303000       0.40652000       0.33732000
    80  C          0.76697000       0.59348000       0.66268000
    81  C          0.75543000       0.80382000       0.50742000
    82  C          0.24457000       0.19618000       0.49258000
    83  C          0.25003000       0.29992000       0.26712000
    84  C          0.74997000       0.70008000       0.73288000
    85  C          0.06743000       0.40542000       0.35992000
    86  C          0.93257000       0.59458000       0.64008000
    87  C          0.92203000       0.80742000       0.48652000
    88  C          0.07797000       0.19258000       0.51348000
    89  C          0.71833000       0.90822000       0.56632000
    90  C          0.28167000       0.09178000       0.43368000
    91  H          0.55413100       0.43962100       0.31361900
    92  H          0.44586900       0.56037900       0.68638100
    93  H          0.76933400       0.59872100       0.38382000
    94  H          0.23066600       0.40127900       0.61618000
    95  H          0.44743300       0.77122200       0.54482100
    96  H          0.55256700       0.22877800       0.45517900
    97  H          0.23923400       0.60592100       0.47832000
    98  H          0.76076600       0.39407900       0.52168000
