data_GIXFUO
_symmetry_space_group_name_H-M    'P1'
_symmetry_Int_Tables_number       1
loop_
_symmetry_equiv_pos_site_id
_symmetry_equiv_pos_as_xyz
1 x,y,z
_cell_length_a                   11.2972
_cell_length_b                   11.83901
_cell_length_c                   12.93401
_cell_angle_alpha                65.5201
_cell_angle_beta                 65.7401
_cell_angle_gamma                89.0201
loop_
_atom_site_label
_atom_site_type_symbol
_atom_site_fract_x
_atom_site_fract_y
_atom_site_fract_z
     1  I          0.95595300       0.81252300       0.35250300
     2  I          0.04404700       0.18747700       0.64749700
     3  F          0.90434000       0.56094000       0.32594000
     4  F          0.09566000       0.43906000       0.67406000
     5  F          0.05254000       0.67353000       0.56894000
     6  F          0.94746000       0.32647000       0.43106000
     7  C          0.97915000       0.62455000       0.44365000
     8  C          0.02085000       0.37545000       0.55635000
     9  C          0.95366000       0.53246000       0.41205000
    10  C          0.04634000       0.46754000       0.58795000
    11  C          0.02476000       0.58755000       0.53345000
    12  C          0.97524000       0.41245000       0.46655000
    13  Br         0.91987600       0.08723600       0.22196600
    14  Br         0.08012400       0.91276400       0.77803400
    15  P          0.51948130       0.34128120       0.25010120
    16  P          0.48051870       0.65871880       0.74989880
    17  C          0.54065000       0.23955000       0.38775000
    18  C          0.45935000       0.76045000       0.61225000
    19  C          0.66595000       0.23505000       0.38335000
    20  C          0.33405000       0.76495000       0.61665000
    21  H          0.74130000       0.28530000       0.30810000
    22  H          0.25870000       0.71470000       0.69190000
    23  C          0.67776000       0.15496000       0.49226000
    24  C          0.32224000       0.84504000       0.50774000
    25  H          0.76190000       0.15050000       0.48970000
    26  H          0.23810000       0.84950000       0.51030000
    27  C          0.56846000       0.08275000       0.60235000
    28  C          0.43154000       0.91725000       0.39765000
    29  H          0.57760000       0.02990000       0.67540000
    30  H          0.42240000       0.97010000       0.32460000
    31  C          0.44556000       0.08736000       0.60635000
    32  C          0.55444000       0.91264000       0.39365000
    33  H          0.37040000       0.03770000       0.68230000
    34  H          0.62960000       0.96230000       0.31770000
    35  C          0.43106000       0.16426000       0.49985000
    36  C          0.56894000       0.83574000       0.50015000
    37  H          0.34640000       0.16570000       0.50300000
    38  H          0.65360000       0.83430000       0.49700000
    39  C          0.41765000       0.25345000       0.22215000
    40  C          0.58235000       0.74655000       0.77785000
    41  C          0.28395000       0.20876000       0.30615000
    42  C          0.71605000       0.79124000       0.69385000
    43  H          0.24590000       0.22820000       0.37490000
    44  H          0.75410000       0.77180000       0.62510000
    45  C          0.20786000       0.13596000       0.28796000
    46  C          0.79214000       0.86404000       0.71204000
    47  H          0.11800000       0.10490000       0.34540000
    48  H          0.88200000       0.89510000       0.65460000
    49  C          0.26206000       0.10795000       0.18606000
    50  C          0.73794000       0.89205000       0.81394000
    51  H          0.20970000       0.05720000       0.17490000
    52  H          0.79030000       0.94280000       0.82510000
    53  C          0.39256000       0.15455000       0.10145000
    54  C          0.60744000       0.84545000       0.89855000
    55  H          0.42910000       0.13630000       0.03170000
    56  H          0.57090000       0.86370000       0.96830000
    57  C          0.47115000       0.22805000       0.11725000
    58  C          0.52885000       0.77195000       0.88275000
    59  H          0.56000000       0.26080000       0.05760000
    60  H          0.44000000       0.73920000       0.94240000
    61  C          0.43825000       0.46575000       0.27645000
    62  C          0.56175000       0.53425000       0.72355000
    63  C          0.46267000       0.51396000       0.34856000
    64  C          0.53733000       0.48604000       0.65144000
    65  H          0.51540000       0.47690000       0.38920000
    66  H          0.48460000       0.52310000       0.61080000
    67  C          0.40937000       0.61596000       0.36037000
    68  C          0.59063000       0.38404000       0.63963000
    69  H          0.42460000       0.64730000       0.41050000
    70  H          0.57540000       0.35270000       0.58950000
    71  C          0.33426000       0.67226000       0.29946000
    72  C          0.66574000       0.32774000       0.70054000
    73  H          0.30090000       0.74370000       0.30540000
    74  H          0.69910000       0.25630000       0.69460000
    75  C          0.30766000       0.62396000       0.22966000
    76  C          0.69234000       0.37604000       0.77034000
    77  H          0.25390000       0.66110000       0.19000000
    78  H          0.74610000       0.33890000       0.81000000
    79  C          0.35935000       0.52145000       0.21735000
    80  C          0.64065000       0.47855000       0.78265000
    81  H          0.34120000       0.48910000       0.16910000
    82  H          0.65880000       0.51090000       0.83090000
    83  C          0.67855000       0.40955000       0.11425000
    84  C          0.32145000       0.59045000       0.88575000
    85  C          0.71926000       0.54075000       0.04545000
    86  C          0.28074000       0.45925000       0.95455000
    87  H          0.66370000       0.59420000       0.06970000
    88  H          0.33630000       0.40580000       0.93030000
    89  C          0.84146000       0.59075000       0.94175000
    90  C          0.15854000       0.40925000       0.05825000
    91  H          0.86960000       0.67870000       0.89540000
    92  H          0.13040000       0.32130000       0.10460000
    93  C          0.92226000       0.51196000       0.90605000
    94  C          0.07774000       0.48804000       0.09395000
    95  H          0.00460000       0.54660000       0.83450000
    96  H         -0.00460000       0.45340000       0.16550000
    97  C          0.88295000       0.38226000       0.97475000
    98  C          0.11705000       0.61774000       0.02525000
    99  H          0.93920000       0.32930000       0.95010000
   100  H          0.06080000       0.67070000       0.04990000
   101  C          0.76245000       0.33035000       0.07895000
   102  C          0.23755000       0.66965000       0.92105000
   103  H          0.73640000       0.24220000       0.12610000
   104  H          0.26360000       0.75780000       0.87390000
   105  Cl         0.70922000       0.03932000       0.02692000
   106  Cl         0.29078000       0.96068000       0.97308000
   107  Cl         0.74493000       0.78372000       0.14982000
   108  Cl         0.25507000       0.21628000       0.85018000
   109  C          0.82126000       0.94217000       0.05757000
   110  C          0.17874000       0.05783000       0.94243000
   111  H          0.89310000       0.95250000       0.97710000
   112  H          0.10690000       0.04750000       0.02290000
   113  H          0.85960000       0.96780000       0.10170000
   114  H          0.14040000       0.03220000       0.89830000
