data_GIXGAV
_symmetry_space_group_name_H-M    'P1'
_symmetry_Int_Tables_number       1
loop_
_symmetry_equiv_pos_site_id
_symmetry_equiv_pos_as_xyz
1 x,y,z
_cell_length_a                   7.14801
_cell_length_b                   24.0573
_cell_length_c                   9.30801
_cell_angle_alpha                90.0
_cell_angle_beta                 96.3801
_cell_angle_gamma                90.0
loop_
_atom_site_label
_atom_site_type_symbol
_atom_site_fract_x
_atom_site_fract_y
_atom_site_fract_z
     1  I          0.34028400       0.09659813       0.42449400
     2  I          0.15971600       0.59659813       0.07550600
     3  I          0.65971600       0.90340187       0.57550600
     4  I          0.84028400       0.40340187       0.92449400
     5  F          0.02215000       0.09932110       0.63854000
     6  F          0.47785000       0.59932110       0.86146000
     7  F          0.97785000       0.90067890       0.36146000
     8  F          0.52215000       0.40067890       0.13854000
     9  F          0.24454000       0.97214870       0.30953000
    10  F          0.25546000       0.47214870       0.19047000
    11  F          0.75546000       0.02785130       0.69047000
    12  F          0.74454000       0.52785130       0.80953000
    13  C          0.14166000       0.03803180       0.47205000
    14  C          0.35834000       0.53803180       0.02795000
    15  C          0.85834000       0.96196820       0.52795000
    16  C          0.64166000       0.46196820       0.97205000
    17  C          0.01216000       0.04991180       0.56885000
    18  C          0.48784000       0.54991180       0.93115000
    19  C         -0.01216000       0.95008820       0.43115000
    20  C          0.51216000       0.45008820       0.06885000
    21  C          0.12546000       0.98684810       0.40435000
    22  C          0.37454000       0.48684810       0.09565000
    23  C          0.87454000       0.01315190       0.59565000
    24  C          0.62546000       0.51315190       0.90435000
    25  I          0.76456600       0.09818712       0.19073300
    26  I          0.73543400       0.59818712       0.30926700
    27  I          0.23543400       0.90181288       0.80926700
    28  I          0.26456600       0.40181288       0.69073300
    29  F          0.69396000       0.96796880       0.12663000
    30  F          0.80604000       0.46796880       0.37337000
    31  F          0.30604000       0.03203120       0.87337000
    32  F          0.19396000       0.53203120       0.62663000
    33  F          0.12135000       0.10666100       0.01384000
    34  F          0.37865000       0.60666100       0.48616000
    35  F          0.87865000       0.89333900      -0.01384000
    36  F          0.62135000       0.39333900       0.51384000
    37  C          0.05946000       0.05393180       0.00895000
    38  C          0.44054000       0.55393180       0.49105000
    39  C          0.94054000       0.94606820      -0.00895000
    40  C          0.55946000       0.44606820       0.50895000
    41  C          0.90313000       0.03938190       0.07455000
    42  C          0.59687000       0.53938190       0.42545000
    43  C          0.09687000       0.96061810       0.92545000
    44  C          0.40313000       0.46061810       0.57455000
    45  C          0.84464000       0.98491820       0.06455000
    46  C          0.65536000       0.48491820       0.43545000
    47  C          0.15536000       0.01508180       0.93545000
    48  C          0.34464000       0.51508180       0.56455000
    49  Cl         0.59887170       0.19712500       0.35554140
    50  Cl         0.90112830       0.69712500       0.14445860
    51  Cl         0.40112830       0.80287500       0.64445860
    52  Cl         0.09887170       0.30287500       0.85554140
    53  N          0.58775000       0.21854160       0.81896000
    54  N          0.91225000       0.71854160       0.68104000
    55  N          0.41225000       0.78145840       0.18104000
    56  N          0.08775000       0.28145840       0.31896000
    57  C          0.75693000       0.18322000       0.80123000
    58  C          0.74307000       0.68322000       0.69877000
    59  C          0.24307000       0.81678000       0.19877000
    60  C          0.25693000       0.31678000       0.30123000
    61  H          0.74370000       0.16680000       0.70550000
    62  H          0.75630000       0.66680000       0.79450000
    63  H          0.25630000       0.83320000       0.29450000
    64  H          0.24370000       0.33320000       0.20550000
    65  H          0.76710000       0.15400000       0.87350000
    66  H          0.73290000       0.65400000       0.62650000
    67  H          0.23290000       0.84600000       0.12650000
    68  H          0.26710000       0.34600000       0.37350000
    69  H          0.86940000       0.20610000       0.81350000
    70  H          0.63060000       0.70610000       0.68650000
    71  H          0.13060000       0.79390000       0.18650000
    72  H          0.36940000       0.29390000       0.31350000
    73  C          0.41692000       0.18352000       0.80343000
    74  C          0.08308000       0.68352000       0.69657000
    75  C          0.58308000       0.81648000       0.19657000
    76  C          0.91692000       0.31648000       0.30343000
    77  H          0.30790000       0.20630000       0.81560000
    78  H          0.19210000       0.70630000       0.68440000
    79  H          0.69210000       0.79370000       0.18440000
    80  H          0.80790000       0.29370000       0.31560000
    81  H          0.42900000       0.15460000       0.87660000
    82  H          0.07100000       0.65460000       0.62340000
    83  H          0.57100000       0.84540000       0.12340000
    84  H          0.92900000       0.34540000       0.37660000
    85  H          0.40200000       0.16670000       0.70830000
    86  H          0.09800000       0.66670000       0.79170000
    87  H          0.59800000       0.83330000       0.29170000
    88  H          0.90200000       0.33330000       0.20830000
    89  C          0.57262000       0.26292000       0.70795000
    90  C          0.92738000       0.76292000       0.79205000
    91  C          0.42738000       0.73708000       0.29205000
    92  C          0.07262000       0.23708000       0.20795000
    93  H          0.46320000       0.28570000       0.71870000
    94  H          0.03680000       0.78570000       0.78130000
    95  H          0.53680000       0.71430000       0.28130000
    96  H          0.96320000       0.21430000       0.21870000
    97  H          0.55990000       0.24620000       0.61260000
    98  H          0.94010000       0.74620000       0.88740000
    99  H          0.44010000       0.75380000       0.38740000
   100  H          0.05990000       0.25380000       0.11260000
   101  H          0.68500000       0.28580000       0.72010000
   102  H          0.81500000       0.78580000       0.77990000
   103  H          0.31500000       0.71420000       0.27990000
   104  H          0.18500000       0.21420000       0.22010000
   105  C          0.61072000       0.24522000       0.96485000
   106  C          0.88928000       0.74522000       0.53515000
   107  C          0.38928000       0.75478000       0.03515000
   108  C          0.11072000       0.25478000       0.46485000
   109  H          0.50470000       0.26960000       0.97430000
   110  H         -0.00470000       0.76960000       0.52570000
   111  H          0.49530000       0.73040000       0.02570000
   112  H          0.00470000       0.23040000       0.47430000
   113  H          0.72640000       0.26660000       0.97620000
   114  H          0.77360000       0.76660000       0.52380000
   115  H          0.27360000       0.73340000       0.02380000
   116  H          0.22640000       0.23340000       0.47620000
   117  H          0.61610000       0.21670000       0.03890000
   118  H          0.88390000       0.71670000       0.46110000
   119  H          0.38390000       0.78330000       0.96110000
   120  H          0.11610000       0.28330000       0.53890000
