data_GIXGEZ
_symmetry_space_group_name_H-M    'P1'
_symmetry_Int_Tables_number       1
loop_
_symmetry_equiv_pos_site_id
_symmetry_equiv_pos_as_xyz
1 x,y,z
_cell_length_a                   14.00801
_cell_length_b                   16.6992
_cell_length_c                   7.95901
_cell_angle_alpha                90.0
_cell_angle_beta                 102.8101
_cell_angle_gamma                90.0
loop_
_atom_site_label
_atom_site_type_symbol
_atom_site_fract_x
_atom_site_fract_y
_atom_site_fract_z
     1  I          0.17397200       0.29537719       0.01221400
     2  I          0.82602800       0.79537719       0.48778600
     3  I          0.82602800       0.70462281      -0.01221400
     4  I          0.17397200       0.20462281       0.51221400
     5  I          0.82807700       0.03507200       0.53069500
     6  I          0.17192300       0.53507200       0.96930500
     7  I          0.17192300       0.96492800       0.46930500
     8  I          0.82807700       0.46492800       0.03069500
     9  F          0.97258000       0.32394180       0.74455000
    10  F          0.02742000       0.82394180       0.75545000
    11  F          0.02742000       0.67605820       0.25545000
    12  F          0.97258000       0.17605820       0.24455000
    13  F          0.84307000       0.22542000       0.55555000
    14  F          0.15693000       0.72542000       0.94445000
    15  F          0.15693000       0.77458000       0.44445000
    16  F          0.84307000       0.27458000       0.05555000
    17  F          0.02342000       0.00396180       0.82295000
    18  F          0.97658000       0.50396180       0.67705000
    19  F          0.97658000      -0.00396180       0.17705000
    20  F          0.02342000       0.49603820       0.32295000
    21  F          0.15352000       0.10282000       0.01284000
    22  F          0.84648000       0.60282000       0.48716000
    23  F          0.84648000       0.89718000      -0.01284000
    24  F          0.15352000       0.39718000       0.51284000
    25  C          0.06654000       0.21653000       0.88324000
    26  C          0.93346000       0.71653000       0.61676000
    27  C          0.93346000       0.78347000       0.11676000
    28  C          0.06654000       0.28347000       0.38324000
    29  C          0.98576000       0.24443000       0.76853000
    30  C          0.01424000       0.74443000       0.73147000
    31  C          0.01424000       0.75557000       0.23147000
    32  C          0.98576000       0.25557000       0.26853000
    33  C          0.91926000       0.19343000       0.66823000
    34  C          0.08074000       0.69343000       0.83177000
    35  C          0.08074000       0.80657000       0.33177000
    36  C          0.91926000       0.30657000       0.16823000
    37  C          0.92996000       0.11103000       0.68364000
    38  C          0.07004000       0.61103000       0.81636000
    39  C          0.07004000       0.88897000       0.31636000
    40  C          0.92996000       0.38897000       0.18364000
    41  C          0.00964000       0.08323000       0.80233000
    42  C         -0.00964000       0.58323000       0.69767000
    43  C         -0.00964000       0.91677000       0.19767000
    44  C          0.00964000       0.41677000       0.30233000
    45  C          0.07694000       0.13433000       0.90114000
    46  C          0.92306000       0.63433000       0.59886000
    47  C          0.92306000       0.86567000       0.09886000
    48  C          0.07694000       0.36567000       0.40114000
    49  Br         0.34425400       0.42010300       0.21415700
    50  Br         0.65574600       0.92010300       0.28584300
    51  Br         0.65574600       0.57989700       0.78584300
    52  Br         0.34425400       0.07989700       0.71415700
    53  N          0.47543000       0.12702000       0.26225000
    54  N          0.52457000       0.62702000       0.23775000
    55  N          0.52457000       0.87298000       0.73775000
    56  N          0.47543000       0.37298000       0.76225000
    57  C          0.41176000       0.19895000       0.23851200
    58  C          0.58824000       0.69895000       0.26148800
    59  C          0.58824000       0.80105000       0.76148800
    60  C          0.41176000       0.30105000       0.73851200
    61  H          0.36680000       0.19650000       0.12660000
    62  H          0.63320000       0.69650000       0.37340000
    63  H          0.63320000       0.80350000       0.87340000
    64  H          0.36680000       0.30350000       0.62660000
    65  H          0.45180000       0.24660000       0.24520000
    66  H          0.54820000       0.74660000       0.25480000
    67  H          0.54820000       0.75340000       0.75480000
    68  H          0.45180000       0.25340000       0.74520000
    69  H          0.37470000       0.20050000       0.32810000
    70  H          0.62530000       0.70050000       0.17190000
    71  H          0.62530000       0.79950000       0.67190000
    72  H          0.37470000       0.29950000       0.82810000
    73  C          0.53985000       0.12644000       0.43867000
    74  C          0.46015000       0.62644000       0.06133000
    75  C          0.46015000       0.87356000       0.56133000
    76  C          0.53985000       0.37356000       0.93867000
    77  H          0.49980000       0.12890000       0.52350000
    78  H          0.50020000       0.62890000       0.97650000
    79  H          0.50020000       0.87110000       0.47650000
    80  H          0.49980000       0.37110000       0.02350000
    81  H          0.58320000       0.17240000       0.45220000
    82  H          0.41680000       0.67240000       0.04780000
    83  H          0.41680000       0.82760000       0.54780000
    84  H          0.58320000       0.32760000       0.95220000
    85  H          0.57840000       0.07770000       0.45480000
    86  H          0.42160000       0.57770000       0.04520000
    87  H          0.42160000       0.92230000       0.54520000
    88  H          0.57840000       0.42230000       0.95480000
    89  C          0.41575000       0.05274000       0.23699000
    90  C          0.58425000       0.55274000       0.26301000
    91  C          0.58425000       0.94726000       0.76301000
    92  C          0.41575000       0.44726000       0.73699000
    93  H          0.37320000       0.05300000       0.12270000
    94  H          0.62680000       0.55300000       0.37730000
    95  H          0.62680000       0.94700000       0.87730000
    96  H          0.37320000       0.44700000       0.62270000
    97  H          0.37630000       0.05010000       0.32280000
    98  H          0.62370000       0.55010000       0.17720000
    99  H          0.62370000       0.94990000       0.67720000
   100  H          0.37630000       0.44990000       0.82280000
   101  H          0.45860000       0.00650000       0.24870000
   102  H          0.54140000       0.50650000       0.25130000
   103  H          0.54140000      -0.00650000       0.75130000
   104  H          0.45860000       0.49350000       0.74870000
   105  C          0.53822000       0.12963000       0.13334000
   106  C          0.46178000       0.62963000       0.36666000
   107  C          0.46178000       0.87037000       0.86666000
   108  C          0.53822000       0.37037000       0.63334000
   109  H          0.49710000       0.12720000       0.01790000
   110  H          0.50290000       0.62720000       0.48210000
   111  H          0.50290000       0.87280000      -0.01790000
   112  H          0.49710000       0.37280000       0.51790000
   113  H          0.58260000       0.08430000       0.15110000
   114  H          0.41740000       0.58430000       0.34890000
   115  H          0.41740000       0.91570000       0.84890000
   116  H          0.58260000       0.41570000       0.65110000
   117  H          0.57560000       0.17890000       0.14690000
   118  H          0.42440000       0.67890000       0.35310000
   119  H          0.42440000       0.82110000       0.85310000
   120  H          0.57560000       0.32110000       0.64690000
   121  N          0.64846000       0.17924000       0.81763000
   122  N          0.35154000       0.67924000       0.68237000
   123  N          0.35154000       0.82076000       0.18237000
   124  N          0.64846000       0.32076000       0.31763000
   125  C          0.70537000       0.13893000       0.89996000
   126  C          0.29463000       0.63893000       0.60004000
   127  C          0.29463000       0.86107000       0.10004000
   128  C          0.70537000       0.36107000       0.39996000
   129  C          0.77757000       0.08793000       0.00424000
   130  C          0.22243000       0.58793000       0.49576000
   131  C          0.22243000       0.91207000      -0.00424000
   132  C          0.77757000       0.41207000       0.50424000
   133  H          0.78630000       0.11360000       0.13714000
   134  H          0.21370000       0.61360000       0.36286000
   135  H          0.21370000       0.88640000       0.86286000
   136  H          0.78630000       0.38640000       0.63714000
   137  H          0.80430000       0.04460000       0.94086000
   138  H          0.19570000       0.54460000       0.55914000
   139  H          0.19570000       0.95540000       0.05914000
   140  H          0.80430000       0.45540000       0.44086000
   141  H          0.74730000       0.05260000       0.04514000
   142  H          0.25270000       0.55260000       0.45486000
   143  H          0.25270000       0.94740000       0.95486000
   144  H          0.74730000       0.44740000       0.54514000
