data_GIXWIT
_symmetry_space_group_name_H-M    'P1'
_symmetry_Int_Tables_number       1
loop_
_symmetry_equiv_pos_site_id
_symmetry_equiv_pos_as_xyz
1 x,y,z
_cell_length_a                   8.312012
_cell_length_b                   16.6123
_cell_length_c                   17.3903
_cell_angle_alpha                87.26514
_cell_angle_beta                 79.47111
_cell_angle_gamma                78.16911
loop_
_atom_site_label
_atom_site_type_symbol
_atom_site_fract_x
_atom_site_fract_y
_atom_site_fract_z
     1  I          0.27097140       0.28903600       0.40504600
     2  I          0.72902860       0.71096400       0.59495400
     3  I          0.02482150       0.42489700       0.34289700
     4  I          0.97517850       0.57510300       0.65710300
     5  I          0.81075850       0.55663700       0.27507700
     6  I          0.18924150       0.44336300       0.72492300
     7  I          0.43856190       0.43883800       0.46909800
     8  I          0.56143810       0.56116200       0.53090200
     9  I          0.88308160       0.26369800       0.90342400
    10  I          0.11691840       0.73630200       0.09657600
    11  I          0.07019140       0.12817700      -0.00025600
    12  I          0.92980860       0.87182300       0.00025600
    13  I          0.20411150       0.01869700       0.11123700
    14  I          0.79588850       0.98130300       0.88876300
    15  I          0.79163140       0.21467600       0.39898600
    16  I          0.20836860       0.78532400       0.60101400
    17  I          0.09103140       0.08337600       0.34876600
    18  I          0.90896860       0.91662400       0.65123400
    19  I          0.36972150       0.95271300       0.29248700
    20  I          0.63027850       0.04728700       0.70751300
    21  I          0.57928160       0.06236700       0.46760700
    22  I          0.42071840       0.93763300       0.53239300
    23  I          0.22424160       0.45583700       0.10065700
    24  I          0.77575840       0.54416300       0.89934300
    25  I          0.32062140       0.34549700       0.96587400
    26  I          0.67937860       0.65450300       0.03412600
    27  I          0.42335160       0.22970800       0.83684300
    28  I          0.57664840       0.77029200       0.16315700
    29  P          0.20715000       0.67652000       0.34212000
    30  P          0.79285000       0.32348000       0.65788000
    31  P          0.92505000       0.82472000       0.34032000
    32  P          0.07495000       0.17528000       0.65968000
    33  N          0.08181400       0.75056000       0.30256000
    34  N          0.91818600       0.24944000       0.69744000
    35  H          0.10170000       0.75070000       0.25220000
    36  H          0.89830000       0.24930000       0.74780000
    37  C          0.29520000       0.60109000       0.26639000
    38  C          0.70480000       0.39891000       0.73361000
    39  H          0.20710000       0.58290000       0.24770000
    40  H          0.79290000       0.41710000       0.75230000
    41  H          0.36470000       0.55480000       0.28730000
    42  H          0.63530000       0.44520000       0.71270000
    43  H          0.36150000       0.62520000       0.22390000
    44  H          0.63850000       0.37480000       0.77610000
    45  C          0.36441900       0.71611000       0.37579000
    46  C          0.63558100       0.28389000       0.62421000
    47  H          0.41970000       0.74600000       0.33400000
    48  H          0.58030000       0.25400000       0.66600000
    49  H          0.44410000       0.67150000       0.39240000
    50  H          0.55590000       0.32850000       0.60760000
    51  H          0.31430000       0.75220000       0.41880000
    52  H          0.68570000       0.24780000       0.58120000
    53  C          0.08601900       0.63309000       0.42269000
    54  C          0.91398100       0.36691000       0.57731000
    55  H          0.04260000       0.67340000       0.46280000
    56  H          0.95740000       0.32660000       0.53720000
    57  H          0.15520000       0.58640000       0.44310000
    58  H          0.84480000       0.41360000       0.55690000
    59  H         -0.00490000       0.61580000       0.40540000
    60  H          0.00490000       0.38420000       0.59460000
    61  C          0.89880000       0.90069000       0.26709000
    62  C          0.10120000       0.09931000       0.73291000
    63  H          0.00150000       0.91900000       0.24970000
    64  H         -0.00150000       0.08100000       0.75030000
    65  H          0.81280000       0.94620000       0.28760000
    66  H          0.18720000       0.05380000       0.71240000
    67  H          0.86670000       0.87790000       0.22360000
    68  H          0.13330000       0.12210000       0.77640000
    69  C          0.96948200       0.86559000       0.42409000
    70  C          0.03051800       0.13441000       0.57591000
    71  H          0.97720000       0.82380000       0.46410000
    72  H          0.02280000       0.17620000       0.53590000
    73  H          0.88190000       0.91120000       0.44260000
    74  H          0.11810000       0.08880000       0.55740000
    75  H          0.07360000       0.88370000       0.41090000
    76  H          0.92640000       0.11630000       0.58910000
    77  C          0.73628300       0.78489000       0.36811000
    78  C          0.26371700       0.21511000       0.63189000
    79  H          0.72020000       0.75450000       0.32540000
    80  H          0.27980000       0.24550000       0.67460000
    81  H          0.64290000       0.82950000       0.38090000
    82  H          0.35710000       0.17050000       0.61910000
    83  H          0.74550000       0.74900000       0.41280000
    84  H          0.25450000       0.25100000       0.58720000
    85  P          0.57065000       0.18702000       0.13272000
    86  P          0.42935000       0.81298000       0.86728000
    87  P          0.72975000       0.33402000       0.14912000
    88  P          0.27025000       0.66598000       0.85088000
    89  N          0.65951600       0.26527000       0.10357000
    90  N          0.34048400       0.73473000       0.89643000
    91  H          0.67320000       0.27250000       0.05360000
    92  H          0.32680000       0.72750000       0.94640000
    93  C          0.36120000       0.21989000       0.17769000
    94  C          0.63880000       0.78011000       0.82231000
    95  H          0.35490000       0.25580000       0.22000000
    96  H          0.64510000       0.74420000       0.78000000
    97  H          0.31450000       0.17290000       0.19740000
    98  H          0.68550000       0.82710000       0.80260000
    99  H          0.29790000       0.24860000       0.14000000
   100  H          0.70210000       0.75140000       0.86000000
   101  C          0.58220000       0.13001000       0.04911100
   102  C          0.41780000       0.86999000       0.95088900
   103  H          0.51460000       0.16200000       0.01470000
   104  H          0.48540000       0.83800000       0.98530000
   105  H          0.54070000       0.08050000       0.06410000
   106  H          0.45930000       0.91950000       0.93590000
   107  H          0.69550000       0.11610000       0.02270000
   108  H          0.30450000       0.88390000       0.97730000
   109  C          0.68320000       0.12521000       0.20131100
   110  C          0.31680000       0.87479000       0.79868900
   111  H          0.79600000       0.10520000       0.17650000
   112  H          0.20400000       0.89480000       0.82350000
   113  H          0.63030000       0.07960000       0.21860000
   114  H          0.36970000       0.92040000       0.78140000
   115  H          0.68150000       0.15810000       0.24550000
   116  H          0.31850000       0.84190000       0.75450000
   117  C          0.74520000       0.41909000       0.08459000
   118  C          0.25480000       0.58091000       0.91541000
   119  H          0.82740000       0.40190000       0.03900000
   120  H          0.17260000       0.59810000       0.96100000
   121  H          0.77630000       0.46160000       0.11040000
   122  H          0.22370000       0.53840000       0.88960000
   123  H          0.63850000       0.43960000       0.06900000
   124  H          0.36150000       0.56040000       0.93100000
   125  C          0.58520000       0.36491000       0.23739000
   126  C          0.41480000       0.63509000       0.76261000
   127  H          0.47340000       0.37760000       0.22620000
   128  H          0.52660000       0.62240000       0.77380000
   129  H          0.61010000       0.41260000       0.25770000
   130  H          0.38990000       0.58740000       0.74230000
   131  H          0.59370000       0.32090000       0.27510000
   132  H          0.40630000       0.67910000       0.72490000
   133  C          0.92620000       0.29181100       0.17249000
   134  C          0.07380000       0.70818900       0.82751000
   135  H          0.92040000       0.24120000       0.20100000
   136  H          0.07960000       0.75880000       0.79900000
   137  H          0.95730000       0.32980000       0.20390000
   138  H          0.04270000       0.67020000       0.79610000
   139  H          0.00650000       0.28120000       0.12520000
   140  H         -0.00650000       0.71880000       0.87480000
