data_GIYHUS
_symmetry_space_group_name_H-M    'P1'
_symmetry_Int_Tables_number       1
loop_
_symmetry_equiv_pos_site_id
_symmetry_equiv_pos_as_xyz
1 x,y,z
_cell_length_a                   5.21017
_cell_length_b                   5.95408
_cell_length_c                   23.9593
_cell_angle_alpha                85.9422
_cell_angle_beta                 89.8742
_cell_angle_gamma                79.2702
loop_
_atom_site_label
_atom_site_type_symbol
_atom_site_fract_x
_atom_site_fract_y
_atom_site_fract_z
     1  S          0.28659100       0.66281900       0.26882200
     2  S          0.71340900       0.33718100       0.73117800
     3  O          0.80633000       0.15663000       0.17362700
     4  O          0.19367000       0.84337000       0.82637300
     5  H          0.70260000       0.15080000       0.14830000
     6  H          0.29740000       0.84920000       0.85170000
     7  O          0.81064000       0.50493000       0.13292700
     8  O          0.18936000       0.49507000       0.86707300
     9  O          0.49853000       0.47393000       0.27929700
    10  O          0.50147000       0.52607000       0.72070300
    11  O          0.33753000       0.88863000       0.25685700
    12  O          0.66247000       0.11137000       0.74314300
    13  O          0.16114000       0.10883000       0.44540700
    14  O          0.83886000       0.89117000       0.55459300
    15  O          0.79084000       0.26183000       0.48615800
    16  O          0.20916000       0.73817000       0.51384200
    17  H          0.82490000       0.14050000       0.50550000
    18  H          0.17510000       0.85950000       0.49450000
    19  N          0.12044000       0.60693000       0.21616700
    20  N          0.87956000       0.39307000       0.78383300
    21  H          0.07390000       0.70670000       0.18860000
    22  H          0.92610000       0.29330000       0.81140000
    23  C          0.87704000       0.35734000       0.16981900
    24  C          0.12296000       0.64266000       0.83018100
    25  C          0.05384000       0.38053000       0.21767900
    26  C          0.94616000       0.61947000       0.78232100
    27  H          0.96800000       0.35110000       0.25270000
    28  H          0.03200000       0.64890000       0.74730000
    29  H          0.21260000       0.26650000       0.21620000
    30  H          0.78740000       0.73350000       0.78380000
    31  C          0.07744000       0.66473000       0.32717800
    32  C          0.92256000       0.33527000       0.67282200
    33  C          0.10624000       0.47634000       0.36478800
    34  C          0.89376000       0.52366000       0.63521200
    35  H          0.24080000       0.35230000       0.36060000
    36  H          0.75920000       0.64770000       0.63940000
    37  C          0.93464000       0.47094000       0.40896900
    38  C          0.06536000       0.52906000       0.59103100
    39  C          0.73395000       0.65794000       0.41460100
    40  C          0.26605000       0.34206000       0.58539900
    41  H          0.61730000       0.65550000       0.44400000
    42  H          0.38270000       0.34450000       0.55600000
    43  C          0.70765000       0.84644000       0.37682110
    44  C          0.29235000       0.15356000       0.62317890
    45  H          0.57420000       0.97130000       0.38110000
    46  H          0.42580000       0.02870000       0.61890000
    47  C          0.87735000       0.85154000       0.33276110
    48  C          0.12265000       0.14846000       0.66723890
    49  H          0.85810000      -0.02170000       0.30710000
    50  H          0.14190000       0.02170000       0.69290000
    51  C          0.96504000       0.26774000       0.44925900
    52  C          0.03496000       0.73226000       0.55074100
    53  N          0.46064000       0.11293000       0.09809800
    54  N          0.53936000       0.88707000       0.90190200
    55  C          0.39635000       0.24964000       0.05182100
    56  C          0.60365000       0.75036000       0.94817900
    57  H          0.47560000       0.37670000       0.04580000
    58  H          0.52440000       0.62330000       0.95420000
    59  C          0.21854000       0.21304000       0.01237900
    60  C          0.78146000       0.78696000       0.98762100
    61  H          0.18110000       0.31290000       0.98060000
    62  H          0.81890000       0.68710000       0.01940000
    63  C          0.09574000       0.02453000       0.02070800
    64  C          0.90426000       0.97547000       0.97929200
    65  C          0.16004000       0.88566000       0.06958900
    66  C          0.83996000       0.11434000       0.93041100
    67  H          0.08020000       0.75990000       0.07750000
    68  H          0.91980000       0.24010000       0.92250000
    69  C          0.34194000       0.93386000       0.10645900
    70  C          0.65806000       0.06614000       0.89354100
    71  H          0.38360000       0.83690000       0.13860000
    72  H          0.61640000       0.16310000       0.86140000
