data_GIYJED
_symmetry_space_group_name_H-M    'P1'
_symmetry_Int_Tables_number       1
loop_
_symmetry_equiv_pos_site_id
_symmetry_equiv_pos_as_xyz
1 x,y,z
_cell_length_a                   11.8761
_cell_length_b                   6.0101
_cell_length_c                   25.4781
_cell_angle_alpha                90.0
_cell_angle_beta                 97.3196
_cell_angle_gamma                90.0
loop_
_atom_site_label
_atom_site_type_symbol
_atom_site_fract_x
_atom_site_fract_y
_atom_site_fract_z
     1  O          0.80331000       0.55403000       0.06359600
     2  O          0.19669000       0.05403000       0.43640400
     3  O          0.19669000       0.44597000       0.93640400
     4  O          0.80331000       0.94597000       0.56359600
     5  O          0.54531000       0.03083000       0.09849700
     6  O          0.45469000       0.53083000       0.40150300
     7  O          0.45469000       0.96917000       0.90150300
     8  O          0.54531000       0.46917000       0.59849700
     9  N          0.69121000       0.28323000       0.09464700
    10  N          0.30879000       0.78323000       0.40535300
    11  N          0.30879000       0.71677000       0.90535300
    12  N          0.69121000       0.21677000       0.59464700
    13  C          0.60652000       0.49954000       0.02615800
    14  C          0.39348000      -0.00046000       0.47384200
    15  C          0.39348000       0.50046000       0.97384200
    16  C          0.60652000       0.00046000       0.52615800
    17  C          0.52822000       0.33984000       0.03660800
    18  C          0.47178000       0.83984000       0.46339200
    19  C          0.47178000       0.66016000       0.96339200
    20  C          0.52822000       0.16016000       0.53660800
    21  C          0.58182000       0.66614000       0.98914100
    22  C          0.41818000       0.16614000       0.51085900
    23  C          0.41818000       0.33386000       0.01085900
    24  C          0.58182000       0.83386000       0.48914100
    25  C          0.77182000       0.19724000       0.13710800
    26  C          0.22818000       0.69724000       0.36289200
    27  C          0.22818000       0.80276000       0.86289200
    28  C          0.77182000       0.30276000       0.63710800
    29  C          0.71382000       0.45814000       0.06187800
    30  C          0.28618000       0.95814000       0.43812200
    31  C          0.28618000       0.54186000       0.93812200
    32  C          0.71382000       0.04186000       0.56187800
    33  C          0.76612000       0.25124000       0.18997800
    34  C          0.23388000       0.75124000       0.31002200
    35  C          0.23388000       0.74876000       0.81002200
    36  C          0.76612000       0.24876000       0.68997800
    37  C          0.85282000       0.05485000       0.12161000
    38  C          0.14718000       0.55485000       0.37839000
    39  C          0.14718000       0.94515000       0.87839000
    40  C          0.85282000       0.44515000       0.62161000
    41  C          0.58282000       0.19244000       0.07943900
    42  C          0.41718000       0.69244000       0.42056100
    43  C          0.41718000       0.80756000       0.92056100
    44  C          0.58282000       0.30756000       0.57943900
    45  C          0.68042000       0.40864000       0.21130900
    46  C          0.31958000       0.90864000       0.28869100
    47  C          0.31958000       0.59136000       0.78869100
    48  C          0.68042000       0.09136000       0.71130900
    49  C          0.84512000       0.14024000       0.22615100
    50  C          0.15488000       0.64024000       0.27384900
    51  C          0.15488000       0.85976000       0.77384900
    52  C          0.84512000       0.35976000       0.72615100
    53  C          0.92582000      -0.00145000       0.21141000
    54  C          0.07418000       0.49855000       0.28859000
    55  C          0.07418000       0.00145000       0.78859000
    56  C          0.92582000       0.50145000       0.71141000
    57  C          0.64003000       0.60025000       0.17431000
    58  C          0.35997000       0.10025000       0.32569000
    59  C          0.35997000       0.39975000       0.82569000
    60  C          0.64003000       0.89975000       0.67431000
    61  C          0.57903000       0.26866000       0.22302000
    62  C          0.42097000       0.76866000       0.27698000
    63  C          0.42097000       0.73134000       0.77698000
    64  C          0.57903000       0.23134000       0.72302000
    65  C          0.73243000       0.51817000       0.26291000
    66  C          0.26757000       0.01817000       0.23709000
    67  C          0.26757000       0.48183000       0.73709000
    68  C          0.73243000      -0.01817000       0.76291000
    69  C          0.93182000       0.95775000       0.15911000
    70  C          0.06818000       0.45775000       0.34089000
    71  C          0.06818000       0.04225000       0.84089000
    72  C          0.93182000       0.54225000       0.65911000
    73  H          0.85320000       0.03140000       0.08399000
    74  H          0.14680000       0.53140000       0.41601000
    75  H          0.14680000       0.96860000       0.91601000
    76  H          0.85320000       0.46860000       0.58399000
    77  H          0.84320000       0.16640000       0.26388000
    78  H          0.15680000       0.66640000       0.23612000
    79  H          0.15680000       0.83360000       0.73612000
    80  H          0.84320000       0.33360000       0.76388000
    81  H          0.97920000       0.91760000       0.23809000
    82  H          0.02080000       0.41760000       0.26191000
    83  H          0.02080000       0.08240000       0.76191000
    84  H          0.97920000       0.58240000       0.73809000
    85  H          0.98520000       0.85860000       0.14611000
    86  H          0.01480000       0.35860000       0.35389000
    87  H          0.01480000       0.14140000       0.85389000
    88  H          0.98520000       0.64140000       0.64611000
    89  H          0.71320000       0.67050000       0.16410000
    90  H          0.28680000       0.17050000       0.33590000
    91  H          0.28680000       0.32950000       0.83590000
    92  H          0.71320000       0.82950000       0.66410000
    93  H          0.58720000       0.55150000       0.14210000
    94  H          0.41280000       0.05150000       0.35790000
    95  H          0.41280000       0.44850000       0.85790000
    96  H          0.58720000       0.94850000       0.64210000
    97  H          0.59720000       0.71840000       0.19221000
    98  H          0.40280000       0.21840000       0.30779000
    99  H          0.40280000       0.28160000       0.80779000
   100  H          0.59720000       0.78160000       0.69221000
   101  H          0.52220000       0.35940000       0.23679000
   102  H          0.47780000       0.85940000       0.26321000
   103  H          0.47780000       0.64060000       0.76321000
   104  H          0.52220000       0.14060000       0.73679000
   105  H          0.54320000       0.19450000       0.19010000
   106  H          0.45680000       0.69450000       0.30990000
   107  H          0.45680000       0.80550000       0.80990000
   108  H          0.54320000       0.30550000       0.69010000
   109  H          0.61230000       0.15660000       0.25210000
   110  H          0.38770000       0.65660000       0.24790000
   111  H          0.38770000       0.84340000       0.74790000
   112  H          0.61230000       0.34340000       0.75210000
   113  H          0.74720000       0.39450000       0.29110000
   114  H          0.25280000       0.89450000       0.20890000
   115  H          0.25280000       0.60550000       0.70890000
   116  H          0.74720000       0.10550000       0.79110000
   117  H          0.80220000       0.59750000       0.25610000
   118  H          0.19780000       0.09750000       0.24390000
   119  H          0.19780000       0.40250000       0.74390000
   120  H          0.80220000       0.90250000       0.75610000
   121  H          0.67620000       0.62450000       0.27710000
   122  H          0.32380000       0.12450000       0.22290000
   123  H          0.32380000       0.37550000       0.72290000
   124  H          0.67620000       0.87550000       0.77710000
   125  H          0.63620000       0.78730000       0.98253000
   126  H          0.36380000       0.28730000       0.51747000
   127  H          0.36380000       0.21270000       0.01747000
   128  H          0.63620000       0.71270000       0.48253000
   129  O          0.80992000       0.02794000       0.97444100
   130  O          0.19008000       0.52794000       0.52555900
   131  O          0.19008000       0.97206000       0.02555900
   132  O          0.80992000       0.47206000       0.47444100
   133  O          0.00541000       0.24893000       0.96969300
   134  O         -0.00541000       0.74893000       0.53030700
   135  O         -0.00541000       0.75107000       0.03030700
   136  O          0.00541000       0.25107000       0.46969300
   137  C          0.90962000       0.32624000       0.93894100
   138  C          0.09038000       0.82624000       0.56105900
   139  C          0.09038000       0.67376000       0.06105900
   140  C          0.90962000       0.17376000       0.43894100
   141  C          0.81102000       0.20835000       0.94159100
   142  C          0.18898000       0.70835000       0.55840900
   143  C          0.18898000       0.79165000       0.05840900
   144  C          0.81102000       0.29165000       0.44159100
   145  C          0.90952000       0.50935000       0.90679000
   146  C          0.09048000       0.00935000       0.59321000
   147  C          0.09048000       0.49065000       0.09321000
   148  C          0.90952000      -0.00935000       0.40679000
   149  C          0.71232000       0.27236000       0.91159000
   150  C          0.28768000       0.77236000       0.58841000
   151  C          0.28768000       0.72764000       0.08841000
   152  C          0.71232000       0.22764000       0.41159000
   153  C          0.80953000       0.57466000       0.87699000
   154  C          0.19047000       0.07466000       0.62301000
   155  C          0.19047000       0.42534000       0.12301000
   156  C          0.80953000       0.92534000       0.37699000
   157  C          0.71173000       0.45687000       0.87949000
   158  C          0.28827000       0.95687000       0.62051000
   159  C          0.28827000       0.54313000       0.12051000
   160  C          0.71173000       0.04313000       0.37949000
   161  H          0.98120000       0.59340000       0.90649000
   162  H          0.01880000       0.09340000       0.59351000
   163  H          0.01880000       0.40660000       0.09351000
   164  H          0.98120000       0.90660000       0.40649000
   165  H          0.64420000       0.18150000       0.91490000
   166  H          0.35580000       0.68150000       0.58510000
   167  H          0.35580000       0.81850000       0.08510000
   168  H          0.64420000       0.31850000       0.41490000
   169  H          0.81220000       0.71150000       0.85590000
   170  H          0.18780000       0.21150000       0.64410000
   171  H          0.18780000       0.28850000       0.14410000
   172  H          0.81220000       0.78850000       0.35590000
   173  H          0.64420000       0.49150000       0.85890000
   174  H          0.35580000      -0.00850000       0.64110000
   175  H          0.35580000       0.50850000       0.14110000
   176  H          0.64420000       0.00850000       0.35890000
   177  H          0.87730000      -0.00960000       0.98290000
   178  H          0.12270000       0.49040000       0.51710000
   179  H          0.12270000       0.00960000       0.01710000
   180  H          0.87730000       0.50960000       0.48290000
   181  H          0.06420000       0.31750000       0.96490000
   182  H          0.93580000       0.81750000       0.53510000
   183  H          0.93580000       0.68250000       0.03510000
   184  H          0.06420000       0.18250000       0.46490000
