data_GIYXIZ
_symmetry_space_group_name_H-M    'P1'
_symmetry_Int_Tables_number       1
loop_
_symmetry_equiv_pos_site_id
_symmetry_equiv_pos_as_xyz
1 x,y,z
_cell_length_a                   10.526911
_cell_length_b                   12.019312
_cell_length_c                   13.254614
_cell_angle_alpha                90.0
_cell_angle_beta                 113.0805
_cell_angle_gamma                90.0
loop_
_atom_site_label
_atom_site_type_symbol
_atom_site_fract_x
_atom_site_fract_y
_atom_site_fract_z
     1  C          0.42347140       0.26153120       0.37138110
     2  C          0.07652860       0.76153120       0.12861890
     3  C          0.57652860       0.73846880       0.62861890
     4  C          0.92347140       0.23846880       0.87138110
     5  C          0.38105160       0.17026130       0.41522120
     6  C          0.11894840       0.67026130       0.08477880
     7  C          0.61894840       0.82973870       0.58477880
     8  C          0.88105160       0.32973870       0.91522120
     9  C          0.29455160       0.08858130       0.34990130
    10  C          0.20544840       0.58858130       0.15009870
    11  C          0.70544840       0.91141870       0.65009870
    12  C          0.79455160       0.41141870       0.84990130
    13  H          0.26855400       0.02709800       0.38263500
    14  H          0.23144600       0.52709800       0.11736500
    15  H          0.73144600       0.97290200       0.61736500
    16  H          0.76855400       0.47290200       0.88263500
    17  C          0.24636160       0.09694140       0.23714130
    18  C          0.25363840       0.59694140       0.26285870
    19  C          0.75363840       0.90305860       0.76285870
    20  C          0.74636160       0.40305860       0.73714130
    21  H          0.18365900       0.04305900       0.19210000
    22  H          0.31634100       0.54305900       0.30790000
    23  H          0.81634100       0.95694100       0.80790000
    24  H          0.68365900       0.45694100       0.69210000
    25  C          0.28965150       0.18415130       0.18968120
    26  C          0.21034850       0.68415130       0.31031880
    27  C          0.71034850       0.81584870       0.81031880
    28  C          0.78965150       0.31584870       0.68968120
    29  H          0.25824100       0.18987500       0.11219800
    30  H          0.24175900       0.68987500       0.38780200
    31  H          0.74175900       0.81012500       0.88780200
    32  H          0.75824100       0.31012500       0.61219800
    33  C          0.37954140       0.26286120       0.25716120
    34  C          0.12045860       0.76286120       0.24283880
    35  C          0.62045860       0.73713880       0.74283880
    36  C          0.87954140       0.23713880       0.75716120
    37  O          0.49689120       0.34329900       0.43801800
    38  O          0.00310880       0.84329900       0.06198200
    39  O          0.50310880       0.65670100       0.56198200
    40  O         -0.00310880       0.15670100       0.93801800
    41  H          0.55831900       0.36491200       0.41761100
    42  H          0.94168100       0.86491200       0.08238900
    43  H          0.44168100       0.63508800       0.58238900
    44  H          0.05831900       0.13508800       0.91761100
    45  Cl         0.43985500       0.15841300       0.55719300
    46  Cl         0.06014500       0.65841300       0.94280700
    47  Cl         0.56014500       0.84158700       0.44280700
    48  Cl         0.93985500       0.34158700       0.05719300
    49  Cl         0.44275400       0.36593300       0.19755300
    50  Cl         0.05724600       0.86593300       0.30244700
    51  Cl         0.55724600       0.63406700       0.80244700
    52  Cl         0.94275400       0.13406700       0.69755300
    53  C          0.70225170       0.56196130       0.41876120
    54  C          0.79774830       0.06196130       0.08123880
    55  C          0.29774830       0.43803870       0.58123880
    56  C          0.20225170       0.93803870       0.91876120
    57  H          0.63226300       0.59301400       0.43855500
    58  H          0.86773700       0.09301400       0.06144500
    59  H          0.36773700       0.40698600       0.56144500
    60  H          0.13226300       0.90698600       0.93855500
    61  C          0.79216170       0.63467130       0.39628130
    62  C          0.70783830       0.13467130       0.10371870
    63  C          0.20783830       0.36532870       0.60371870
    64  C          0.29216170       0.86532870       0.89628130
    65  H          0.78356000       0.71290700       0.40162700
    66  H          0.71644000       0.21290700       0.09837300
    67  H          0.21644000       0.28709300       0.59837300
    68  H          0.28356000       0.78709300       0.90162700
    69  C          0.89231160       0.59100140       0.36656120
    70  C          0.60768840       0.09100140       0.13343880
    71  C          0.10768840       0.40899860       0.63343880
    72  C          0.39231160       0.90899860       0.86656120
    73  H          0.95352000       0.63871900       0.35005700
    74  H          0.54648000       0.13871900       0.14994300
    75  H          0.04648000       0.36128100       0.64994300
    76  H          0.45352000       0.86128100       0.85005700
    77  C          0.90403150       0.47488130       0.36060110
    78  C          0.59596850       0.97488130       0.13939890
    79  C          0.09596850       0.52511870       0.63939890
    80  C          0.40403150       0.02511870       0.86060110
    81  C          0.00760160       0.42311150       0.33108130
    82  C          0.49239840       0.92311150       0.16891870
    83  C         -0.00760160       0.57688850       0.66891870
    84  C          0.50760160       0.07688850       0.83108130
    85  H          0.06765600       0.46832200       0.31065300
    86  H          0.43234400       0.96832200       0.18934700
    87  H          0.93234400       0.53167800       0.68934700
    88  H          0.56765600       0.03167800       0.81065300
    89  C          0.02111160       0.31179150       0.33182130
    90  C          0.47888840       0.81179150       0.16817870
    91  C          0.97888840       0.68820850       0.66817870
    92  C          0.52111160       0.18820850       0.83182130
    93  H          0.09139100       0.27963400       0.31307900
    94  H          0.40860900       0.77963400       0.18692100
    95  H          0.90860900       0.72036600       0.68692100
    96  H          0.59139100       0.22036600       0.81307900
    97  C          0.93094150       0.24117130       0.36049110
    98  C          0.56905850       0.74117130       0.13950890
    99  C          0.06905850       0.75882870       0.63950890
   100  C          0.43094150       0.25882870       0.86049110
   101  C          0.94374170       0.12432140       0.36587130
   102  C          0.55625830       0.62432140       0.13412870
   103  C          0.05625830       0.87567860       0.63412870
   104  C          0.44374170       0.37567860       0.86587130
   105  H          0.01631600       0.08920500       0.35224600
   106  H          0.48368400       0.58920500       0.14775400
   107  H         -0.01631600       0.91079500       0.64775400
   108  H          0.51631600       0.41079500       0.85224600
   109  C          0.85190180       0.06190140       0.39062130
   110  C          0.64809820       0.56190140       0.10937870
   111  C          0.14809820       0.93809860       0.60937870
   112  C          0.35190180       0.43809860       0.89062130
   113  H          0.85995900       0.98316300       0.39532700
   114  H          0.64004100       0.48316300       0.10467300
   115  H          0.14004100       0.01683700       0.60467300
   116  H          0.35995900       0.51683700       0.89532700
   117  C          0.74492170       0.11656130       0.40905120
   118  C          0.75507830       0.61656130       0.09094880
   119  C          0.25507830       0.88343870       0.59094880
   120  C          0.24492170       0.38343870       0.90905120
   121  H          0.67942300       0.07229200       0.42382000
   122  H          0.82057700       0.57229200       0.07618000
   123  H          0.32057700       0.92770800       0.57618000
   124  H          0.17942300       0.42770800       0.92382000
   125  C          0.82311140       0.28803120       0.38451110
   126  C          0.67688860       0.78803120       0.11548890
   127  C          0.17688860       0.71196880       0.61548890
   128  C          0.32311140       0.21196880       0.88451110
   129  C          0.81057140       0.40808130       0.38615110
   130  C          0.68942860       0.90808130       0.11384890
   131  C          0.18942860       0.59191870       0.61384890
   132  C          0.31057140       0.09191870       0.88615110
   133  N          0.71000130       0.45238100       0.41378100
   134  N          0.78999870       0.95238100       0.08621900
   135  N          0.28999870       0.54761900       0.58621900
   136  N          0.21000130       0.04761900       0.91378100
   137  N          0.72995130       0.22563100       0.40709100
   138  N          0.77004870       0.72563100       0.09290900
   139  N          0.27004870       0.77436900       0.59290900
   140  N          0.22995130       0.27436900       0.90709100
