data_GIYYOG
_symmetry_space_group_name_H-M    'P1'
_symmetry_Int_Tables_number       1
loop_
_symmetry_equiv_pos_site_id
_symmetry_equiv_pos_as_xyz
1 x,y,z
_cell_length_a                   5.7897
_cell_length_b                   14.24319
_cell_length_c                   12.60216
_cell_angle_alpha                90.0
_cell_angle_beta                 98.643
_cell_angle_gamma                90.0
loop_
_atom_site_label
_atom_site_type_symbol
_atom_site_fract_x
_atom_site_fract_y
_atom_site_fract_z
     1  C          0.43242000       0.58052100       0.30853110
     2  C          0.56758000       0.08052100       0.19146890
     3  C          0.56758000       0.41947900       0.69146890
     4  C          0.43242000       0.91947900       0.80853110
     5  C          0.62192000       0.54125100       0.26845110
     6  C          0.37808000       0.04125100       0.23154890
     7  C          0.37808000       0.45874900       0.73154890
     8  C          0.62192000       0.95874900       0.76845110
     9  C          0.67873000       0.44756100       0.28381120
    10  C          0.32127000       0.94756100       0.21618880
    11  C          0.32127000       0.55243900       0.71618880
    12  C          0.67873000       0.05243900       0.78381120
    13  H          0.80962900       0.42261000       0.25606800
    14  H          0.19037100       0.92261000       0.24393200
    15  H          0.19037100       0.57739000       0.74393200
    16  H          0.80962900       0.07739000       0.75606800
    17  C          0.54673000       0.38987100       0.33916130
    18  C          0.45327000       0.88987100       0.16083870
    19  C          0.45327000       0.61012900       0.66083870
    20  C          0.54673000       0.11012900       0.83916130
    21  H          0.58310700       0.32513400       0.34919100
    22  H          0.41689300       0.82513400       0.15080900
    23  H          0.41689300       0.67486600       0.65080900
    24  H          0.58310700       0.17486600       0.84919100
    25  C          0.36013000       0.42935100       0.37947110
    26  C          0.63987000       0.92935100       0.12052890
    27  C          0.63987000       0.57064900       0.62052890
    28  C          0.36013000       0.07064900       0.87947110
    29  C          0.30092000       0.52293100       0.36539110
    30  C          0.69908000       0.02293100       0.13460890
    31  C          0.69908000       0.47706900       0.63460890
    32  C          0.30092000       0.97706900       0.86539110
    33  H          0.17133100       0.54770700       0.39434000
    34  H          0.82866900       0.04770700       0.10566000
    35  H          0.82866900       0.45229300       0.60566000
    36  H          0.17133100       0.95229300       0.89434000
    37  O          0.38654190       0.67179700       0.28909900
    38  O          0.61345810       0.17179700       0.21090100
    39  O          0.61345810       0.32820300       0.71090100
    40  O          0.38654190       0.82820300       0.78909900
    41  H          0.28240000       0.68946000       0.32381600
    42  H          0.71760000       0.18946000       0.17618400
    43  H          0.71760000       0.31054000       0.67618400
    44  H          0.28240000       0.81054000       0.82381600
    45  Cl         0.78854600       0.61289200       0.19851300
    46  Cl         0.21145400       0.11289200       0.30148700
    47  Cl         0.21145400       0.38710800       0.80148700
    48  Cl         0.78854600       0.88710800       0.69851300
    49  Cl         0.19202700       0.35821300       0.45035300
    50  Cl         0.80797300       0.85821300       0.04964700
    51  Cl         0.80797300       0.64178700       0.54964700
    52  Cl         0.19202700       0.14178700       0.95035300
    53  C          0.28203000       0.82245100       0.46949120
    54  C          0.71797000       0.32245100       0.03050880
    55  C          0.71797000       0.17754900       0.53050880
    56  C          0.28203000       0.67754900       0.96949120
    57  H          0.43064800       0.79454300       0.49123100
    58  H          0.56935200       0.29454300       0.00876900
    59  H          0.56935200       0.20545700       0.50876900
    60  H          0.43064800       0.70545700      -0.00876900
    61  C          0.24003000       0.90982100       0.51064120
    62  C          0.75997000       0.40982100      -0.01064120
    63  C          0.75997000       0.09017900       0.48935880
    64  C          0.24003000       0.59017900       0.01064120
    65  H          0.35712900       0.94011200       0.55972500
    66  H          0.64287100       0.44011200       0.94027500
    67  H          0.64287100       0.05988800       0.44027500
    68  H          0.35712900       0.55988800       0.05972500
    69  C          0.02562000       0.95283900       0.47968100
    70  C         -0.02562000       0.45283900       0.02031900
    71  C         -0.02562000       0.04716100       0.52031900
    72  C          0.02562000       0.54716100       0.97968100
    73  C          0.86348000       0.90323100       0.40904120
    74  C          0.13652000       0.40323100       0.09095880
    75  C          0.13652000       0.09676900       0.59095880
    76  C          0.86348000       0.59676900       0.90904120
    77  H          0.71371200       0.92947000       0.38555500
    78  H          0.28628800       0.42947000       0.11444500
    79  H          0.28628800       0.07053000       0.61444500
    80  H          0.71371200       0.57053000       0.88555500
    81  C          0.91907000       0.81556100       0.37255120
    82  C          0.08093000       0.31556100       0.12744880
    83  C          0.08093000       0.18443900       0.62744880
    84  C          0.91907000       0.68443900       0.87255120
    85  H          0.80412200       0.78273200       0.32488500
    86  H          0.19587800       0.28273200       0.17511500
    87  H          0.19587800       0.21726800       0.67511500
    88  H          0.80412200       0.71726800       0.82488500
    89  N          0.12652000       0.77529800       0.40130100
    90  N          0.87348000       0.27529800       0.09869900
    91  N          0.87348000       0.22470200       0.59869900
    92  N          0.12652000       0.72470200       0.90130100
