data_GIYYUM
_symmetry_space_group_name_H-M    'P1'
_symmetry_Int_Tables_number       1
loop_
_symmetry_equiv_pos_site_id
_symmetry_equiv_pos_as_xyz
1 x,y,z
_cell_length_a                   10.333914
_cell_length_b                   7.29931
_cell_length_c                   14.544019
_cell_angle_alpha                90.0
_cell_angle_beta                 104.9727
_cell_angle_gamma                90.0
loop_
_atom_site_label
_atom_site_type_symbol
_atom_site_fract_x
_atom_site_fract_y
_atom_site_fract_z
     1  C          0.37540140       0.24832000       0.16482100
     2  C          0.12459860       0.74832000       0.33517900
     3  C          0.62459860       0.75168000       0.83517900
     4  C          0.87540140       0.25168000       0.66482100
     5  C          0.37778150       0.07242000       0.20260100
     6  C          0.12221850       0.57242000       0.29739900
     7  C          0.62221850       0.92758000       0.79739900
     8  C          0.87778150       0.42758000       0.70260100
     9  C          0.26855170       0.95508000       0.17768120
    10  C          0.23144830       0.45508000       0.32231880
    11  C          0.73144830       0.04492000       0.82231880
    12  C          0.76855170       0.54492000       0.67768120
    13  H          0.27404700       0.83494200       0.20355100
    14  H          0.22595300       0.33494200       0.29644900
    15  H          0.72595300       0.16505800       0.79644900
    16  H          0.77404700       0.66505800       0.70355100
    17  C          0.15209180       0.01443000       0.11509130
    18  C          0.34790820       0.51443000       0.38490870
    19  C          0.84790820      -0.01443000       0.88490870
    20  C          0.65209180       0.48557000       0.61509130
    21  H          0.07678400       0.93512300       0.09797700
    22  H          0.42321600       0.43512300       0.40202300
    23  H          0.92321600       0.06487700       0.90202300
    24  H          0.57678400       0.56487700       0.59797700
    25  C          0.14439160       0.18883000       0.07712120
    26  C          0.35560840       0.68883000       0.42287880
    27  C          0.85560840       0.81117000       0.92287880
    28  C          0.64439160       0.31117000       0.57712120
    29  H          0.06375600       0.23028500       0.03457200
    30  H          0.43624400       0.73028500       0.46542800
    31  H          0.93624400       0.76971500       0.96542800
    32  H          0.56375600       0.26971500       0.53457200
    33  C          0.25490150       0.30242000       0.10154100
    34  C          0.24509850       0.80242000       0.39845900
    35  C          0.74509850       0.69758000       0.89845900
    36  C          0.75490150       0.19758000       0.60154100
    37  O          0.47814110       0.36644150       0.18424800
    38  O          0.02185890       0.86644150       0.31575200
    39  O          0.52185890       0.63355850       0.81575200
    40  O          0.97814110       0.13355850       0.68424800
    41  H          0.53511800       0.32951700       0.22801500
    42  H          0.96488200       0.82951700       0.27198500
    43  H          0.46488200       0.67048300       0.77198500
    44  H          0.03511800       0.17048300       0.72801500
    45  Cl         0.52075400      -0.00083500       0.28616300
    46  Cl         0.97924600       0.49916500       0.21383700
    47  Cl         0.47924600       0.00083500       0.71383700
    48  Cl         0.02075400       0.50083500       0.78616300
    49  Cl         0.24259400       0.52284600       0.05569300
    50  Cl         0.25740600       0.02284600       0.44430700
    51  Cl         0.75740600       0.47715400       0.94430700
    52  Cl         0.74259400       0.97715400       0.55569300
    53  C          0.80444160       0.24852000       0.36033110
    54  C          0.69555840       0.74852000       0.13966890
    55  C          0.19555840       0.75148000       0.63966890
    56  C          0.30444160       0.25148000       0.86033110
    57  H          0.79506600       0.12659700       0.33666000
    58  H          0.70493400       0.62659700       0.16334000
    59  H          0.20493400       0.87340300       0.66334000
    60  H          0.29506600       0.37340300       0.83666000
    61  C          0.92124150       0.29422000       0.42752110
    62  C          0.57875850       0.79422000       0.07247890
    63  C          0.07875850       0.70578000       0.57247890
    64  C          0.42124150       0.20578000       0.92752110
    65  H         -0.01068200       0.20494400       0.44885000
    66  H          0.51068200       0.70494400       0.05115000
    67  H          0.01068200       0.79505600       0.55115000
    68  H          0.48931800       0.29505600       0.94885000
    69  C          0.93842140       0.47142000       0.46365100
    70  C          0.56157860       0.97142000       0.03634900
    71  C          0.06157860       0.52858000       0.53634900
    72  C          0.43842140       0.02858000       0.96365100
    73  C          0.83389150       0.59402000       0.42818110
    74  C          0.66610850       0.09402000       0.07181890
    75  C          0.16610850       0.40598000       0.57181890
    76  C          0.33389150       0.90598000       0.92818110
    77  H          0.84057500       0.71715700       0.44996000
    78  H          0.65942500       0.21715700       0.05004000
    79  H          0.15942500       0.28284300       0.55004000
    80  H          0.34057500       0.78284300       0.94996000
    81  C          0.72046160       0.53572000       0.36124120
    82  C          0.77953840       0.03572000       0.13875880
    83  C          0.27953840       0.46428000       0.63875880
    84  C          0.22046160       0.96428000       0.86124120
    85  H          0.65034000       0.62149400       0.33855800
    86  H          0.84966000       0.12149400       0.16144200
    87  H          0.34966000       0.37850600       0.66144200
    88  H          0.15034000       0.87850600       0.83855800
    89  N          0.70430130       0.36539190       0.32683900
    90  N          0.79569870       0.86539190       0.17316100
    91  N          0.29569870       0.63460810       0.67316100
    92  N          0.20430130       0.13460810       0.82683900
