data_GIYZAT
_symmetry_space_group_name_H-M    'P1'
_symmetry_Int_Tables_number       1
loop_
_symmetry_equiv_pos_site_id
_symmetry_equiv_pos_as_xyz
1 x,y,z
_cell_length_a                   7.40289
_cell_length_b                   7.95971
_cell_length_c                   9.349012
_cell_angle_alpha                100.6747
_cell_angle_beta                 94.0217
_cell_angle_gamma                100.2707
loop_
_atom_site_label
_atom_site_type_symbol
_atom_site_fract_x
_atom_site_fract_y
_atom_site_fract_z
     1  C          0.59593000       0.52323000       0.78012000
     2  C          0.40407000       0.47677000       0.21988000
     3  C          0.40743000       0.45493000       0.76292000
     4  C          0.59257000       0.54507000       0.23708000
     5  H          0.33186800       0.49560300       0.83441200
     6  H          0.66813200       0.50439700       0.16558800
     7  C          0.32993000       0.32793000       0.64202000
     8  C          0.67007000       0.67207000       0.35798000
     9  C          0.43913000       0.26532000       0.53732000
    10  C          0.56087000       0.73468000       0.46268000
    11  C          0.62573000       0.33463000       0.55352000
    12  C          0.37427000       0.66537000       0.44648000
    13  H          0.70060100       0.29375400       0.48147200
    14  H          0.29939900       0.70624600       0.51852800
    15  C          0.70503000       0.46263000       0.67342000
    16  C          0.29497000       0.53737000       0.32658000
    17  H          0.83358300       0.50948900       0.68322100
    18  H          0.16641700       0.49051100       0.31677900
    19  O          0.66572000       0.64502000       0.90153160
    20  O          0.33428000       0.35498000       0.09846840
    21  H          0.78140000       0.68230000       0.89731400
    22  H          0.21860000       0.31770000       0.10268600
    23  Cl         0.09394700       0.24649800       0.62200700
    24  Cl         0.90605300       0.75350200       0.37799300
    25  Cl         0.34386800       0.10396700       0.38614600
    26  Cl         0.65613200       0.89603300       0.61385400
    27  C          0.14403000       0.74763000       0.02762000
    28  C          0.85597000       0.25237000       0.97238000
    29  H          0.09428900       0.66835000       0.08583400
    30  H          0.90571100       0.33165000       0.91416600
    31  C          0.32593000       0.83263000       0.06292000
    32  C          0.67407000       0.16737000       0.93708000
    33  H          0.39803000       0.80975700       0.14255700
    34  H          0.60197000       0.19024300       0.85744300
    35  C          0.40313000       0.95132000       0.98202000
    36  C          0.59687000       0.04868000       0.01798000
    37  C          0.28953000       0.97353000       0.86523000
    38  C          0.71047000       0.02647000       0.13477000
    39  H          0.33554000       0.05134800       0.80460000
    40  H          0.66446000       0.94865200       0.19540000
    41  C          0.10973000       0.88253000       0.83723000
    42  C          0.89027000       0.11747000       0.16277000
    43  H          0.03523500       0.90067900       0.75663900
    44  H          0.96476500       0.09932100       0.24336100
    45  N          0.03412000       0.77072000       0.91622000
    46  N          0.96588000       0.22928000       0.08378000
