data_GOBMUI
_symmetry_space_group_name_H-M    'P1'
_symmetry_Int_Tables_number       1
loop_
_symmetry_equiv_pos_site_id
_symmetry_equiv_pos_as_xyz
1 x,y,z
_cell_length_a                   9.2413
_cell_length_b                   9.2564
_cell_length_c                   20.3138
_cell_angle_alpha                80.59214
_cell_angle_beta                 89.65914
_cell_angle_gamma                60.383
loop_
_atom_site_label
_atom_site_type_symbol
_atom_site_fract_x
_atom_site_fract_y
_atom_site_fract_z
     1  Cl         0.07478600       0.47725600       0.38503200
     2  Cl         0.92521400       0.52274400       0.61496800
     3  N          0.57386170       0.04489170       0.18606700
     4  N          0.42613830       0.95510830       0.81393300
     5  C          0.42002000       0.39762000       0.36387900
     6  C          0.57998000       0.60238000       0.63612100
     7  B          0.22983000       0.50573000       0.33770100
     8  B          0.77017000       0.49427000       0.66229900
     9  Cl         0.15774600       0.73219600       0.31098200
    10  Cl         0.84225400       0.26780400       0.68901800
    11  C          0.46222000       0.40982000       0.43403900
    12  C          0.53778000       0.59018000       0.56596100
    13  H          0.38460000       0.52490000       0.44230000
    14  H          0.61540000       0.47510000       0.55770000
    15  H          0.57700000       0.39180000       0.43740000
    16  H          0.42300000       0.60820000       0.56260000
    17  B          0.47582000       0.30163000       0.25169100
    18  B          0.52418000       0.69837000       0.74830900
    19  C          0.72252000       0.22992000       0.34106100
    20  C          0.27748000       0.77008000       0.65893900
    21  H          0.78350000       0.14180000       0.31380000
    22  H          0.21650000       0.85820000       0.68620000
    23  H          0.74950000       0.17410000       0.38880000
    24  H          0.25050000       0.82590000       0.61120000
    25  Cl         0.51952500       0.43203500       0.18334200
    26  Cl         0.48047500       0.56796500       0.81665800
    27  C          0.53512000       0.31032000       0.32338900
    28  C          0.46488000       0.68968000       0.67661100
    29  Cl         0.23042500       0.41824500       0.25033200
    30  Cl         0.76957500       0.58175500       0.74966800
    31  C          0.45043000       0.28033000       0.48776110
    32  C          0.54957000       0.71967000       0.51223890
    33  H          0.47650000       0.29440000       0.53220000
    34  H          0.52350000       0.70560000       0.46780000
    35  H          0.53030000       0.16590000       0.48090000
    36  H          0.46970000       0.83410000       0.51910000
    37  H          0.33690000       0.29770000       0.48470000
    38  H          0.66310000       0.70230000       0.51530000
    39  C          0.78242000       0.35913000       0.32905100
    40  C          0.21758000       0.64087000       0.67094900
    41  H          0.90400000       0.30050000       0.33860000
    42  H          0.09600000       0.69950000       0.66140000
    43  H          0.72910000       0.44160000       0.35860000
    44  H          0.27090000       0.55840000       0.64140000
    45  H          0.75240000       0.41760000       0.28230000
    46  H          0.24760000       0.58240000       0.71770000
    47  C          0.52422000       0.11112000       0.23971900
    48  C          0.47578000       0.88888000       0.76028100
    49  C          0.51882000       0.85158000       0.25624900
    50  C          0.48118000       0.14842000       0.74375100
    51  H          0.58140000       0.73630000       0.28350000
    52  H          0.41860000       0.26370000       0.71650000
    53  H          0.40330000       0.87780000       0.24500000
    54  H          0.59670000       0.12220000       0.75500000
    55  C          0.51732000       0.98158000       0.29509900
    56  C          0.48268000       0.01842000       0.70490100
    57  C          0.60342000       0.86298000       0.19277900
    58  C          0.39658000       0.13702000       0.80722100
    59  C          0.36282000       0.04822000       0.33476100
    60  C          0.63718000       0.95178000       0.66523900
    61  H          0.36700000       0.95420000       0.36660000
    62  H          0.63300000       0.04580000       0.63340000
    63  H          0.26180000       0.10110000       0.30380000
    64  H          0.73820000       0.89890000       0.69620000
    65  H          0.36080000       0.13190000       0.35920000
    66  H          0.63920000       0.86810000       0.64080000
    67  C          0.67322000       0.90258000       0.34549900
    68  C          0.32678000       0.09742000       0.65450100
    69  H          0.68590000       0.79950000       0.37350000
    70  H          0.31410000       0.20050000       0.62650000
    71  H          0.65990000       0.98350000       0.37390000
    72  H          0.34010000       0.01650000       0.62610000
    73  H          0.77270000       0.87460000       0.32100000
    74  H          0.22730000       0.12540000       0.67900000
    75  C          0.78852000       0.73448000       0.19774100
    76  C          0.21148000       0.26552000       0.80225900
    77  H          0.80390000       0.62050000       0.20310000
    78  H          0.19610000       0.37950000       0.79690000
    79  H          0.84500000       0.74270000       0.23650000
    80  H          0.15500000       0.25730000       0.76350000
    81  H          0.83630000       0.75730000       0.15680000
    82  H          0.16370000       0.24270000       0.84320000
    83  C          0.51763000       0.84718000       0.13266100
    84  C          0.48237000       0.15282000       0.86733900
    85  H          0.53900000       0.73100000       0.13750000
    86  H          0.46100000       0.26900000       0.86250000
    87  H          0.56180000       0.87490000       0.09150000
    88  H          0.43820000       0.12510000       0.90850000
    89  H          0.39700000       0.92530000       0.13030000
    90  H          0.60300000       0.07470000       0.86970000
    91  C          0.59892000       0.12562000       0.12207800
    92  C          0.40108000       0.87438000       0.87792200
    93  C          0.46122000       0.22222000       0.07365900
    94  C          0.53878000       0.77778000       0.92634100
    95  C          0.48722000       0.29602000       0.01305900
    96  C          0.51278000       0.70398000       0.98694100
    97  H          0.39550000       0.36330000       0.98010000
    98  H          0.60450000       0.63670000       0.01990000
    99  C          0.64242000       0.27462000      -0.00083900
   100  C          0.35758000       0.72538000       0.00083900
   101  H          0.65750000       0.32520000       0.95710000
   102  H          0.34250000       0.67480000       0.04290000
   103  C          0.77552000       0.17872000       0.04733900
   104  C          0.22448000       0.82128000       0.95266100
   105  H          0.88240000       0.16300000       0.03740000
   106  H          0.11760000       0.83700000       0.96260000
   107  C          0.75782000       0.10402000       0.11012900
   108  C          0.24218000       0.89598000       0.88987100
   109  C          0.28362000       0.25832000       0.08374900
   110  C          0.71638000       0.74168000       0.91625100
   111  H          0.28360000       0.19470000       0.12850000
   112  H          0.71640000       0.80530000       0.87150000
   113  C          0.16622000       0.44822000       0.08190100
   114  C          0.83378000       0.55178000       0.91809900
   115  H          0.05630000       0.46770000       0.09460000
   116  H          0.94370000       0.53230000       0.90540000
   117  H          0.15430000       0.51070000       0.03650000
   118  H          0.84570000       0.48930000       0.96350000
   119  H          0.21290000       0.48730000       0.11340000
   120  H          0.78710000       0.51270000       0.88660000
   121  C          0.21812000       0.20182000       0.02945100
   122  C          0.78188000       0.79818000       0.97054900
   123  H          0.10840000       0.21620000       0.03960000
   124  H          0.89160000       0.78380000       0.96040000
   125  H          0.29630000       0.08260000       0.02840000
   126  H          0.70370000       0.91740000       0.97160000
   127  H          0.20770000       0.27080000       0.98570000
   128  H          0.79230000       0.72920000       0.01430000
   129  C          0.91012000       0.01232000       0.16097900
   130  C          0.08988000      -0.01232000       0.83902100
   131  H          0.88240000       0.95660000       0.20150000
   132  H          0.11760000       0.04340000       0.79850000
   133  C          0.06072000       0.87478000       0.13242100
   134  C          0.93928000       0.12522000       0.86757900
   135  H          0.14980000       0.80360000       0.16840000
   136  H          0.85020000       0.19640000       0.83160000
   137  H          0.10170000       0.92840000       0.09750000
   138  H          0.89830000       0.07160000       0.90250000
   139  H          0.02620000       0.80500000       0.11320000
   140  H          0.97380000       0.19500000       0.88680000
   141  C          0.95802000       0.13592000       0.18237100
   142  C          0.04198000       0.86408000       0.81762900
   143  H          0.05460000       0.07380000       0.21580000
   144  H          0.94540000       0.92620000       0.78420000
   145  H          0.86350000       0.22160000       0.20180000
   146  H          0.13650000       0.77840000       0.79820000
   147  H          0.98650000       0.19110000       0.14320000
   148  H          0.01350000       0.80890000       0.85680000
   149  C          0.98058000       0.14683000       0.51771110
   150  C          0.01942000       0.85317000       0.48228890
   151  H          0.96760000       0.24690000       0.53010000
   152  H          0.03240000       0.75310000       0.46990000
   153  C          0.09433000       0.06943000       0.47276100
   154  C          0.90567000       0.93057000       0.52723900
   155  H          0.15880000       0.11720000       0.45370000
   156  H          0.84120000       0.88280000       0.54630000
   157  C          0.11413000       0.92253000       0.45551110
   158  C          0.88587000       0.07747000       0.54448890
   159  H          0.19350000       0.86880000       0.42500000
   160  H          0.80650000       0.13120000       0.57500000
