data_GOBMOC
_symmetry_space_group_name_H-M    'P1'
_symmetry_Int_Tables_number       1
loop_
_symmetry_equiv_pos_site_id
_symmetry_equiv_pos_as_xyz
1 x,y,z
_cell_length_a                   9.2963
_cell_length_b                   32.2561
_cell_length_c                   9.5053
_cell_angle_alpha                90.0
_cell_angle_beta                 97.7399
_cell_angle_gamma                90.0
loop_
_atom_site_label
_atom_site_type_symbol
_atom_site_fract_x
_atom_site_fract_y
_atom_site_fract_z
     1  Cl         0.65099300       0.32872200       0.55384300
     2  Cl         0.84900700       0.82872200       0.94615700
     3  Cl         0.34900700       0.67127800       0.44615700
     4  Cl         0.15099300       0.17127800       0.05384300
     5  C          0.59187140       0.41417400       0.54234140
     6  C          0.90812860       0.91417400       0.95765860
     7  C          0.40812860       0.58582600       0.45765860
     8  C          0.09187140       0.08582600       0.04234140
     9  B          0.57137150       0.37402500       0.63498160
    10  B          0.92862850       0.87402500       0.86501840
    11  B          0.42862850       0.62597500       0.36501840
    12  B          0.07137150       0.12597500       0.13498160
    13  C          0.47646150       0.42985400       0.45868140
    14  C          0.02353850       0.92985400       0.04131860
    15  C          0.52353850       0.57014600       0.54131860
    16  C          0.97646150       0.07014600       0.95868140
    17  Cl         0.35936300       0.36530200       0.60635300
    18  Cl         0.14063700       0.86530200       0.89364700
    19  Cl         0.64063700       0.63469800       0.39364700
    20  Cl         0.85936300       0.13469800       0.10635300
    21  B          0.32128170       0.41066500       0.45798160
    22  B          0.17871830       0.91066500       0.04201840
    23  B          0.67871830       0.58933500       0.54201840
    24  B          0.82128170       0.08933500       0.95798160
    25  Cl         0.24935400       0.38329200       0.29261400
    26  Cl         0.25064600       0.88329200       0.20738600
    27  Cl         0.75064600       0.61670800       0.70738600
    28  Cl         0.74935400       0.11670800       0.79261400
    29  C          0.74665150       0.42876500       0.53635160
    30  C          0.75334850       0.92876500       0.96364840
    31  C          0.25334850       0.57123500       0.46364840
    32  C          0.24665150       0.07123500       0.03635160
    33  H          0.78210000       0.41690000       0.45250000
    34  H          0.71790000       0.91690000       0.04750000
    35  H          0.21790000       0.58310000       0.54750000
    36  H          0.28210000       0.08310000       0.95250000
    37  H          0.80910000       0.41960000       0.62210000
    38  H          0.69090000       0.91960000       0.87790000
    39  H          0.19090000       0.58040000       0.37790000
    40  H          0.30910000       0.08040000       0.12210000
    41  H          0.74840000       0.45910000       0.53060000
    42  H          0.75160000       0.95910000       0.96940000
    43  H          0.25160000       0.54090000       0.46940000
    44  H          0.24840000       0.04090000       0.03060000
    45  C          0.48449170       0.46515400       0.35459150
    46  C          0.01550830       0.96515400       0.14540850
    47  C          0.51550830       0.53484600       0.64540850
    48  C         -0.01550830       0.03484600       0.85459150
    49  H          0.43720000       0.45680000       0.26050000
    50  H          0.06280000       0.95680000       0.23950000
    51  H          0.56280000       0.54320000       0.73950000
    52  H          0.93720000       0.04320000       0.76050000
    53  H          0.58640000       0.47190000       0.34940000
    54  H          0.91360000       0.97190000       0.15060000
    55  H          0.41360000       0.52810000       0.65060000
    56  H          0.08640000       0.02810000       0.84940000
    57  H          0.43510000       0.48950000       0.38670000
    58  H          0.06490000       0.98950000       0.11330000
    59  H          0.56490000       0.51050000       0.61330000
    60  H          0.93510000       0.01050000       0.88670000
    61  Cl         0.18046400       0.44445200       0.51470400
    62  Cl         0.31953600       0.94445200      -0.01470400
    63  Cl         0.81953600       0.55554800       0.48529600
    64  Cl         0.68046400       0.05554800       0.01470400
    65  C          0.60287130       0.37708400       0.81013140
    66  C          0.89712870       0.87708400       0.68986860
    67  C          0.39712870       0.62291600       0.18986860
    68  C          0.10287130       0.12291600       0.31013140
    69  N          0.65831110       0.34907300       0.90038110
    70  N          0.84168890       0.84907300       0.59961890
    71  N          0.34168890       0.65092700       0.09961890
    72  N          0.15831110       0.15092700       0.40038110
    73  C          0.56782140       0.41623400       0.89090140
    74  C          0.93217860       0.91623400       0.60909860
    75  C          0.43217860       0.58376600       0.10909860
    76  C          0.06782140       0.08376600       0.39090140
    77  C          0.57025160       0.40064400       0.04395150
    78  C          0.92974840       0.90064400       0.45604850
    79  C          0.42974840       0.59935600       0.95604850
    80  C          0.07025160       0.09935600       0.54395150
    81  H          0.61380000       0.42180000       0.11210000
    82  H          0.88620000       0.92180000       0.38790000
    83  H          0.38620000       0.57820000       0.88790000
    84  H          0.11380000       0.07820000       0.61210000
    85  H          0.47030000       0.39490000       0.06370000
    86  H          0.02970000       0.89490000       0.43630000
    87  H          0.52970000       0.60510000       0.93630000
    88  H          0.97030000       0.10510000       0.56370000
    89  C          0.66085150       0.36103400       0.05868140
    90  C          0.83914850       0.86103400       0.44131860
    91  C          0.33914850       0.63896600       0.94131860
    92  C          0.16085150       0.13896600       0.55868140
    93  C          0.42227150       0.43712400       0.84014150
    94  C          0.07772850       0.93712400       0.65985850
    95  C          0.57772850       0.56287600       0.15985850
    96  C          0.92227150       0.06287600       0.34014150
    97  H          0.42140000       0.44680000       0.74230000
    98  H          0.07860000       0.94680000       0.75770000
    99  H          0.57860000       0.55320000       0.25770000
   100  H          0.92140000       0.05320000       0.24230000
   101  H          0.40880000       0.46080000       0.90170000
   102  H          0.09120000       0.96080000       0.59830000
   103  H          0.59120000       0.53920000       0.09830000
   104  H          0.90880000       0.03920000       0.40170000
   105  H          0.34340000       0.41720000       0.84390000
   106  H          0.15660000       0.91720000       0.65610000
   107  H          0.65660000       0.58280000       0.15610000
   108  H          0.84340000       0.08280000       0.34390000
   109  C          0.68973160       0.44791400       0.87880160
   110  C          0.81026840       0.94791400       0.62119840
   111  C          0.31026840       0.55208600       0.12119840
   112  C          0.18973160       0.05208600       0.37880160
   113  H          0.68300000       0.45780000       0.78060000
   114  H          0.81700000       0.95780000       0.71940000
   115  H          0.31700000       0.54220000       0.21940000
   116  H          0.18300000       0.04220000       0.28060000
   117  H          0.78430000       0.43470000       0.90610000
   118  H          0.71570000       0.93470000       0.59390000
   119  H          0.21570000       0.56530000       0.09390000
   120  H          0.28430000       0.06530000       0.40610000
   121  H          0.67940000       0.47140000       0.94200000
   122  H          0.82060000       0.97140000       0.55800000
   123  H          0.32060000       0.52860000       0.05800000
   124  H          0.17940000       0.02860000       0.44200000
   125  C          0.58932160       0.32760400       0.13871150
   126  C          0.91067840       0.82760400       0.36128850
   127  C          0.41067840       0.67239600       0.86128850
   128  C          0.08932160       0.17239600       0.63871150
   129  H          0.48980000       0.32300000       0.09270000
   130  H          0.01020000       0.82300000       0.40730000
   131  H          0.51020000       0.67700000       0.90730000
   132  H         -0.01020000       0.17700000       0.59270000
   133  H          0.58750000       0.33650000       0.23700000
   134  H          0.91250000       0.83650000       0.26300000
   135  H          0.41250000       0.66350000       0.76300000
   136  H          0.08750000       0.16350000       0.73700000
   137  H          0.64470000       0.30180000       0.13790000
   138  H          0.85530000       0.80180000       0.36210000
   139  H          0.35530000       0.69820000       0.86210000
   140  H          0.14470000       0.19820000       0.63790000
   141  C          0.81580160       0.36768500       0.13068150
   142  C          0.68419840       0.86768500       0.36931850
   143  C          0.18419840       0.63231500       0.86931850
   144  C          0.31580160       0.13231500       0.63068150
   145  H          0.87120000       0.34200000       0.12660000
   146  H          0.62880000       0.84200000       0.37340000
   147  H          0.12880000       0.65800000       0.87340000
   148  H          0.37120000       0.15800000       0.62660000
   149  H          0.81420000       0.37560000       0.23000000
   150  H          0.68580000       0.87560000       0.27000000
   151  H          0.18580000       0.62440000       0.77000000
   152  H          0.31420000       0.12440000       0.73000000
   153  H          0.86150000       0.38980000       0.08170000
   154  H          0.63850000       0.88980000       0.41830000
   155  H          0.13850000       0.61020000       0.91830000
   156  H          0.36150000       0.11020000       0.58170000
   157  C          0.71937140       0.30857400       0.86915130
   158  C          0.78062860       0.80857400       0.63084870
   159  C          0.28062860       0.69142600       0.13084870
   160  C          0.21937140       0.19142600       0.36915130
   161  C          0.86870140       0.30580400       0.85894130
   162  C          0.63129860       0.80580400       0.64105870
   163  C          0.13129860       0.69419600       0.14105870
   164  C          0.36870140       0.19419600       0.35894130
   165  C          0.92532140       0.26630400       0.84306140
   166  C          0.57467860       0.76630400       0.65693860
   167  C          0.07467860       0.73369600       0.15693860
   168  C          0.42532140       0.23369600       0.34306140
   169  H          0.02600000       0.26340000       0.83720000
   170  H          0.47400000       0.76340000       0.66280000
   171  H          0.97400000       0.73660000       0.16280000
   172  H          0.52600000       0.23660000       0.33720000
   173  C          0.83902150       0.23123400       0.83563140
   174  C          0.66097850       0.73123400       0.66436860
   175  C          0.16097850       0.76876600       0.16436860
   176  C          0.33902150       0.26876600       0.33563140
   177  H          0.88080000       0.20460000       0.82720000
   178  H          0.61920000       0.70460000       0.67280000
   179  H          0.11920000       0.79540000       0.17280000
   180  H          0.38080000       0.29540000       0.32720000
   181  C          0.69167150       0.23507400       0.84054140
   182  C          0.80832850       0.73507400       0.65945860
   183  C          0.30832850       0.76492600       0.15945860
   184  C          0.19167150       0.26492600       0.34054140
   185  H          0.63250000       0.21090000       0.83240000
   186  H          0.86750000       0.71090000       0.66760000
   187  H          0.36750000       0.78910000       0.16760000
   188  H          0.13250000       0.28910000       0.33240000
   189  C          0.62777140       0.27364400       0.85716130
   190  C          0.87222860       0.77364400       0.64283870
   191  C          0.37222860       0.72635600       0.14283870
   192  C          0.12777140       0.22635600       0.35716130
   193  C          0.96974140       0.34290400       0.85392150
   194  C          0.53025860       0.84290400       0.64607850
   195  C          0.03025860       0.65709600       0.14607850
   196  C          0.46974140       0.15709600       0.35392150
   197  H          0.91660000       0.36840000       0.87680000
   198  H          0.58340000       0.86840000       0.62320000
   199  H          0.08340000       0.63160000       0.12320000
   200  H          0.41660000       0.13160000       0.37680000
   201  C          0.01441150       0.34799500       0.70492160
   202  C          0.48558850       0.84799500       0.79507840
   203  C         -0.01441150       0.65200500       0.29507840
   204  C          0.51441150       0.15200500       0.20492160
   205  H          0.92730000       0.34920000       0.63440000
   206  H          0.57270000       0.84920000       0.86560000
   207  H          0.07270000       0.65080000       0.36560000
   208  H          0.42730000       0.15080000       0.13440000
   209  H          0.07440000       0.32440000       0.68420000
   210  H          0.42560000       0.82440000       0.81580000
   211  H          0.92560000       0.67560000       0.31580000
   212  H          0.57440000       0.17560000       0.18420000
   213  H          0.07000000       0.37370000       0.70110000
   214  H          0.43000000       0.87370000       0.79890000
   215  H          0.93000000       0.62630000       0.29890000
   216  H          0.57000000       0.12630000       0.20110000
   217  C          0.10805160       0.33903500       0.96189170
   218  C          0.39194840       0.83903500       0.53810830
   219  C          0.89194840       0.66096500       0.03810830
   220  C          0.60805160       0.16096500       0.46189170
   221  H          0.16710000       0.31590000       0.93470000
   222  H          0.33290000       0.81590000       0.56530000
   223  H          0.83290000       0.68410000       0.06530000
   224  H          0.66710000       0.18410000       0.43470000
   225  H          0.08120000       0.33390000       0.05660000
   226  H          0.41880000       0.83390000       0.44340000
   227  H          0.91880000       0.66610000       0.94340000
   228  H          0.58120000       0.16610000       0.55660000
   229  H          0.16390000       0.36480000       0.96310000
   230  H          0.33610000       0.86480000       0.53690000
   231  H          0.83610000       0.63520000       0.03690000
   232  H          0.66390000       0.13520000       0.46310000
   233  C          0.46320140       0.27516400       0.85116140
   234  C          0.03679860       0.77516400       0.64883860
   235  C          0.53679860       0.72483600       0.14883860
   236  C          0.96320140       0.22483600       0.35116140
   237  H          0.43420000       0.30420000       0.87160000
   238  H          0.06580000       0.80420000       0.62840000
   239  H          0.56580000       0.69580000       0.12840000
   240  H          0.93420000       0.19580000       0.37160000
   241  C          0.40855160       0.24600500       0.96046160
   242  C          0.09144840       0.74600500       0.53953840
   243  C          0.59144840       0.75399500       0.03953840
   244  C          0.90855160       0.25399500       0.46046160
   245  H          0.30430000       0.25030000       0.96090000
   246  H          0.19570000       0.75030000       0.53910000
   247  H          0.69570000       0.74970000       0.03910000
   248  H          0.80430000       0.24970000       0.46090000
   249  H          0.46040000       0.25190000       0.05500000
   250  H          0.03960000       0.75190000       0.44500000
   251  H          0.53960000       0.74810000       0.94500000
   252  H          0.96040000       0.24810000       0.55500000
   253  H          0.42610000       0.21720000       0.93510000
   254  H          0.07390000       0.71720000       0.56490000
   255  H          0.57390000       0.78280000       0.06490000
   256  H          0.92610000       0.28280000       0.43510000
   257  C          0.39020150       0.26315400       0.70257150
   258  C          0.10979850       0.76315400       0.79742850
   259  C          0.60979850       0.73684600       0.29742850
   260  C          0.89020150       0.23684600       0.20257150
   261  H          0.42790000       0.28070000       0.63160000
   262  H          0.07210000       0.78070000       0.86840000
   263  H          0.57210000       0.71930000       0.36840000
   264  H          0.92790000       0.21930000       0.13160000
   265  H          0.28500000       0.26710000       0.69680000
   266  H          0.21500000       0.76710000       0.80320000
   267  H          0.71500000       0.73290000       0.30320000
   268  H          0.78500000       0.23290000       0.19680000
   269  H          0.41100000       0.23400000       0.68420000
   270  H          0.08900000       0.73400000       0.81580000
   271  H          0.58900000       0.76600000       0.31580000
   272  H          0.91100000       0.26600000       0.18420000
   273  C          0.91500160       0.53524500       0.97852180
   274  C          0.58499840       0.03524500       0.52147820
   275  C          0.08499840       0.46475500       0.02147820
   276  C          0.41500160       0.96475500       0.47852180
   277  H          0.85660000       0.55940000       0.96380000
   278  H          0.64340000       0.05940000       0.53620000
   279  H          0.14340000       0.44060000       0.03620000
   280  H          0.35660000       0.94060000       0.46380000
   281  C          0.97535170       0.51806500       0.86667170
   282  C          0.52464830       0.01806500       0.63332830
   283  C          0.02464830       0.48193500       0.13332830
   284  C          0.47535170       0.98193500       0.36667170
   285  H          0.95850000       0.53040000       0.77530000
   286  H          0.54150000       0.03040000       0.72470000
   287  H          0.04150000       0.46960000       0.22470000
   288  H          0.45850000       0.96960000       0.27530000
   289  C          0.06046170       0.48276500       0.88813170
   290  C          0.43953830       0.98276500       0.61186830
   291  C          0.93953830       0.51723500       0.11186830
   292  C          0.56046170       0.01723500       0.38813170
   293  H          0.10190000       0.47090000       0.81140000
   294  H          0.39810000       0.97090000       0.68860000
   295  H          0.89810000       0.52910000       0.18860000
   296  H          0.60190000       0.02910000       0.31140000
