data_GOBWAX
_symmetry_space_group_name_H-M    'P1'
_symmetry_Int_Tables_number       1
loop_
_symmetry_equiv_pos_site_id
_symmetry_equiv_pos_as_xyz
1 x,y,z
_cell_length_a                   8.70322
_cell_length_b                   14.56045
_cell_length_c                   15.56765
_cell_angle_alpha                64.6022
_cell_angle_beta                 77.2402
_cell_angle_gamma                83.6352
loop_
_atom_site_label
_atom_site_type_symbol
_atom_site_fract_x
_atom_site_fract_y
_atom_site_fract_z
     1  S          0.70603700       0.29865500       0.49880500
     2  S          0.29396300       0.70134500       0.50119500
     3  S          0.34096800       0.23914500       0.57834600
     4  S          0.65903200       0.76085500       0.42165400
     5  C          0.72192000       0.22579180       0.62059180
     6  C          0.27808000       0.77420820       0.37940820
     7  C          0.71162000       0.97025820       0.97619180
     8  C          0.28838000       0.02974180       0.02380820
     9  C          0.42373000       0.35521180       0.54143170
    10  C          0.57627000       0.64478820       0.45856830
    11  C          0.68623000       0.12363190       0.66634190
    12  C          0.31377000       0.87636810       0.33365810
    13  H          0.65320000       0.09280000       0.63230000
    14  H          0.34680000       0.90720000       0.36770000
    15  C          0.74782000       0.11305180       0.81269170
    16  C          0.25218000       0.88694820       0.18730830
    17  C          0.76773000       0.27226190       0.67181190
    18  C          0.23227000       0.72773810       0.32818810
    19  H          0.78990000       0.34120000       0.64170000
    20  H          0.21010000       0.65880000       0.35830000
    21  C          0.84973000       0.77078000       0.11402000
    22  C          0.15027000       0.22922000       0.88598000
    23  C          0.78033000       0.21689190       0.76675190
    24  C          0.21967000       0.78310810       0.23324810
    25  H          0.81070000       0.24860000       0.80090000
    26  H          0.18930000       0.75140000       0.19910000
    27  C          0.71453000       0.83178000       0.14201190
    28  C          0.28547000       0.16822000       0.85798810
    29  H          0.70840000       0.82040000       0.20880000
    30  H          0.29160000       0.17960000       0.79120000
    31  H          0.61730000       0.80860000       0.13790000
    32  H          0.38270000       0.19140000       0.86210000
    33  C          0.69903000       0.06709190       0.76150190
    34  C          0.30097000       0.93290810       0.23849810
    35  H          0.67510000      -0.00160000       0.79150000
    36  H          0.32490000       0.00160000       0.20850000
    37  C          0.73023000       0.94448000       0.07798190
    38  C          0.26977000       0.05552000       0.92201810
    39  H          0.65070000       0.98160000       0.10570000
    40  H          0.34930000       0.01840000       0.89430000
    41  H          0.83280000       0.96620000       0.07620000
    42  H          0.16720000       0.03380000       0.92380000
    43  C          0.16643000       0.38102000       0.60182000
    44  C          0.83357000       0.61898000       0.39818000
    45  H          0.07960000       0.41790000       0.61800000
    46  H          0.92040000       0.58210000       0.38200000
    47  C          0.16143000       0.28422000       0.61752000
    48  C          0.83857000       0.71578000       0.38248000
    49  H          0.07110000       0.24530000       0.64640000
    50  H          0.92890000       0.75470000       0.35360000
    51  O          0.64902000       0.91337860       0.95551130
    52  O          0.35098000       0.08662140       0.04448870
    53  O          0.97922000       0.80294840       0.07432170
    54  O          0.02078000       0.19705160       0.92567830
    55  O          0.66053000       0.23061160       0.46420140
    56  O          0.33947000       0.76938840       0.53579860
    57  O          0.81123000       0.67640840       0.13854180
    58  O          0.18877000       0.32359160       0.86145820
    59  O          0.84812000       0.35486170       0.44827150
    60  O          0.15188000       0.64513830       0.55172850
    61  N          0.76732000       0.06199160       0.90914160
    62  N          0.23268000       0.93800840       0.09085840
    63  N          0.57262000       0.38344150       0.50204150
    64  N          0.42738000       0.61655850       0.49795850
    65  N          0.31462000       0.42051180       0.55894170
    66  N          0.68538000       0.57948820       0.44105830
    67  H          0.90960000       0.64260000       0.11330000
    68  H          0.09040000       0.35740000       0.88670000
    69  H          0.80130000       0.10120000       0.92820000
    70  H          0.19870000       0.89880000       0.07180000
    71  H          0.34340000       0.48630000       0.54620000
    72  H          0.65660000       0.51370000       0.45380000
    73  S          0.29036700       0.95423500       0.71654500
    74  S          0.70963300       0.04576500       0.28345500
    75  S          0.07357800       0.08622700       0.55303700
    76  S          0.92642200       0.91377300       0.44696300
    77  C          0.87427000       0.50977180       0.91884180
    78  C          0.12573000       0.49022820       0.08115820
    79  C          0.95808000       0.68911170       0.85085170
    80  C          0.04192000       0.31088830       0.14914830
    81  C          0.15853000       0.85287180       0.76415170
    82  C          0.84147000       0.14712820       0.23584830
    83  C          0.26373000       0.03778190       0.53815190
    84  C          0.73627000       0.96221810       0.46184810
    85  C          0.20233000       0.76507190       0.75031180
    86  C          0.79767000       0.23492810       0.24968820
    87  H          0.29930000       0.76100000       0.71230000
    88  H          0.70070000       0.23900000       0.28770000
    89  C          0.91417000       0.77804190       0.86253190
    90  C          0.08583000       0.22195810       0.13746810
    91  H          0.81690000       0.78260000       0.90000000
    92  H          0.18310000       0.21740000       0.10000000
    93  C          0.58737000       0.29135190       0.00962000
    94  C          0.41263000       0.70864810      -0.00962000
    95  C          0.10213000       0.68337190       0.79296190
    96  C          0.89787000       0.31662810       0.20703810
    97  H          0.13100000       0.62480000       0.78290000
    98  H          0.86900000       0.37520000       0.21710000
    99  C          0.01353000       0.85995190       0.81902190
   100  C          0.98647000       0.14004810       0.18097810
   101  H          0.98280000       0.91970000       0.82670000
   102  H          0.01720000       0.08030000       0.17330000
   103  C          0.74047000       0.34432190       0.97552000
   104  C          0.25953000       0.65567810       0.02448000
   105  H          0.78310000       0.35200000       0.90970000
   106  H          0.21690000       0.64800000       0.09030000
   107  H          0.81390000       0.30200000       0.01580000
   108  H          0.18610000       0.69800000       0.98420000
   109  C          0.72967000       0.44658190       0.97722000
   110  C          0.27033000       0.55341810       0.02278000
   111  H          0.71490000       0.43790000       0.04380000
   112  H          0.28510000       0.56210000       0.95620000
   113  H          0.63800000       0.48290000       0.95170000
   114  H          0.36200000       0.51710000       0.04830000
   115  C          0.22214000       0.12562000       0.38262000
   116  C          0.77786000       0.87438000       0.61738000
   117  H          0.24920000       0.15050000       0.31550000
   118  H          0.75080000       0.84950000       0.68450000
   119  C          0.08434000       0.14343000       0.42903000
   120  C          0.91566000       0.85657000       0.57097000
   121  H          0.00320000       0.18180000       0.39890000
   122  H         -0.00320000       0.81820000       0.60110000
   123  O          0.00002190       0.47360130       0.89438150
   124  O         -0.00002190       0.52639870       0.10561850
   125  O          0.59948000       0.20695160      -0.00225830
   126  O          0.40052000       0.79304840       0.00225830
   127  O          0.20292000       0.03730140       0.73232140
   128  O          0.79708000       0.96269860       0.26767860
   129  O          0.46548000       0.32116160       0.04363190
   130  O          0.53452000       0.67883840       0.95636810
   131  O          0.42842000       0.91688170       0.75785150
   132  O          0.57158000       0.08311830       0.24214850
   133  N          0.34992000       0.98132160       0.60347150
   134  N          0.65008000       0.01867840       0.39652850
   135  N          0.84958000       0.60951150       0.89785160
   136  N          0.15042000       0.39048850       0.10214840
   137  N          0.32193000       0.06640170       0.44385160
   138  N          0.67807000       0.93359830       0.55614840
   139  H          0.51750000       0.17840000       0.01630000
   140  H          0.48250000       0.82160000       0.98370000
   141  H          0.76170000       0.62471900       0.91681800
   142  H          0.23830000       0.37528100       0.08318200
   143  H          0.41640000       0.05220000       0.42620000
   144  H          0.58360000       0.94780000       0.57380000
   145  C          0.24765000       0.42903000       0.31293000
   146  C          0.75235000       0.57097000       0.68707000
   147  H          0.16220000       0.41400000       0.29030000
   148  H          0.83780000       0.58600000       0.70970000
   149  H          0.21960000       0.40520000       0.38280000
   150  H          0.78040000       0.59480000       0.61720000
   151  C          0.39766000       0.37893000       0.28493000
   152  C          0.60234000       0.62107000       0.71507000
   153  H          0.38880000       0.35690000       0.23560000
   154  H          0.61120000       0.64310000       0.76440000
   155  H          0.42380000       0.32050000       0.34060000
   156  H          0.57620000       0.67950000       0.65940000
   157  C          0.51995000       0.45934000       0.24633000
   158  C          0.48005000       0.54066000       0.75367000
   159  H          0.60740000       0.43520000       0.28010000
   160  H          0.39260000       0.56480000       0.71990000
   161  H          0.55950000       0.47910000       0.17750000
   162  H          0.44050000       0.52090000       0.82250000
   163  C          0.43604000       0.54553000       0.26423000
   164  C          0.56396000       0.45447000       0.73577000
   165  H          0.45210000       0.54320000       0.32480000
   166  H          0.54790000       0.45680000       0.67520000
   167  H          0.47410000       0.60970000       0.21220000
   168  H          0.52590000       0.39030000       0.78780000
   169  O          0.27553000       0.53483000       0.26853000
   170  O          0.72447000       0.46517000       0.73147000
