data_GOCCUA
_symmetry_space_group_name_H-M    'P1'
_symmetry_Int_Tables_number       1
loop_
_symmetry_equiv_pos_site_id
_symmetry_equiv_pos_as_xyz
1 x,y,z
_cell_length_a                   5.48307
_cell_length_b                   6.453311
_cell_length_c                   12.1712
_cell_angle_alpha                87.2745
_cell_angle_beta                 85.9125
_cell_angle_gamma                82.6299
loop_
_atom_site_label
_atom_site_type_symbol
_atom_site_fract_x
_atom_site_fract_y
_atom_site_fract_z
     1  I          0.56547200       0.30084200       0.68774200
     2  I          0.43452800       0.69915800       0.31225800
     3  Cl         0.87192800       0.70258600       0.72721300
     4  Cl         0.12807200       0.29741400       0.27278700
     5  Cl         0.73398700       0.12959600       0.43367300
     6  Cl         0.26601300       0.87040400       0.56632700
     7  C          0.82243000       0.42112000       0.57480120
     8  C          0.17757000       0.57888000       0.42519880
     9  C          0.94073000       0.58972000       0.60178120
    10  C          0.05927000       0.41028000       0.39821880
    11  C          0.88243000       0.33222000       0.47217120
    12  C          0.11757000       0.66778000       0.52782880
    13  C          0.50153000       0.09353000       0.02907130
    14  C          0.49847000       0.90647000       0.97092870
    15  C          0.33213000       0.27143000       0.00359140
    16  C          0.66787000       0.72857000      -0.00359140
    17  H          0.33355200       0.39664000       0.04138700
    18  H          0.66644800       0.60336000       0.95861300
    19  C          0.16573000       0.26493000       0.92489150
    20  C          0.83427000       0.73507000       0.07510850
    21  H          0.05312700       0.38522200       0.90867000
    22  H          0.94687300       0.61477800       0.09133000
    23  C          0.16213000       0.08003000       0.86822140
    24  C          0.83787000       0.91997000       0.13177860
    25  H          0.04609400       0.07646700       0.81417200
    26  H          0.95390600       0.92353300       0.18582800
    27  C          0.32453000       0.90447000       0.89020140
    28  C          0.67547000       0.09553000       0.10979860
    29  H          0.32004400       0.78122300       0.85110100
    30  H          0.67995600       0.21877700       0.14889900
