data_GODBAG
_symmetry_space_group_name_H-M    'P1'
_symmetry_Int_Tables_number       1
loop_
_symmetry_equiv_pos_site_id
_symmetry_equiv_pos_as_xyz
1 x,y,z
_cell_length_a                   9.81972
_cell_length_b                   12.26103
_cell_length_c                   16.72504
_cell_angle_alpha                90.0
_cell_angle_beta                 106.20901
_cell_angle_gamma                90.0
loop_
_atom_site_label
_atom_site_type_symbol
_atom_site_fract_x
_atom_site_fract_y
_atom_site_fract_z
     1  O          0.58146150       0.59245120       0.31553800
     2  O          0.41853850       0.09245120       0.68446200
     3  O          0.28726150       0.72184110       0.11090800
     4  O          0.71273850       0.22184110       0.88909200
     5  O          0.49688150       0.42969110       0.18973800
     6  O          0.50311850       0.92969110       0.81026200
     7  O          0.42091150       0.73329130       0.36996800
     8  O          0.57908850       0.23329130       0.63003200
     9  O          0.05476160       0.78300120       0.19363900
    10  O          0.94523840       0.28300120       0.80636100
    11  O          0.59319180       0.42276140       0.08195900
    12  O          0.40680820       0.92276140       0.91804100
    13  O          0.20967180       0.35671130       0.12266100
    14  O          0.79032820       0.85671130       0.87733900
    15  H          0.26285000       0.30198200       0.12766400
    16  H          0.73715000       0.80198200       0.87233600
    17  O          0.75281180       0.64056170       0.25726110
    18  O          0.24718820       0.14056170       0.74273890
    19  O          0.04322000       0.80427190       0.32473110
    20  O          0.95678000       0.30427190       0.67526890
    21  O          0.62682000       0.81188180       0.43958100
    22  O          0.37318000       0.31188180       0.56041900
    23  C          0.59612000       0.39879160       0.15257120
    24  C          0.40388000       0.89879160       0.84742880
    25  C          0.22532000       0.65311160       0.16347110
    26  C          0.77468000       0.15311160       0.83652890
    27  C          0.47732000       0.65034160       0.25179110
    28  C          0.52268000       0.15034160       0.74820890
    29  H          0.52241600       0.66954700       0.20693300
    30  H          0.47758400       0.16954700       0.79306700
    31  C          0.71622000       0.59212180       0.31052130
    32  C          0.28378000       0.09212180       0.68947870
    33  C          0.38742000       0.50476150       0.14536120
    34  C          0.61258000       0.00476150       0.85463880
    35  H          0.43084100       0.55422100       0.11174500
    36  H          0.56915900       0.05422100       0.88825500
    37  C          0.81072000       0.52349180       0.37600120
    38  C          0.18928000       0.02349180       0.62399880
    39  C         -0.00612000       0.82013180       0.25207140
    40  C          0.00612000       0.32013180       0.74792860
    41  C          0.19172000       0.73217170       0.22640120
    42  C          0.80828000       0.23217170       0.77359880
    43  H          0.19767600       0.69443100       0.28028200
    44  H          0.80232400       0.19443100       0.71971800
    45  C          0.48962000       0.71799180       0.51543120
    46  C          0.51038000       0.21799180       0.48456880
    47  C          0.26592000       0.44356170       0.08464120
    48  C          0.73408000       0.94356170       0.91535880
    49  H          0.30333500       0.41143900       0.04004200
    50  H          0.69666500       0.91143900       0.95995800
    51  C          0.52282000       0.76045170       0.43955120
    52  C          0.47718000       0.26045170       0.56044880
    53  C          0.31162000       0.81408160       0.23651120
    54  C          0.68838000       0.31408160       0.76348880
    55  H          0.29158600       0.88384700       0.26206500
    56  H          0.70841400       0.38384700       0.73793500
    57  C          0.31062000       0.50380160       0.27901120
    58  C          0.68938000       0.00380160       0.72098880
    59  H          0.27244100       0.54990000       0.31553500
    60  H          0.72755900       0.04990000       0.68446500
    61  H          0.39621900       0.46668800       0.31206100
    62  H          0.60378100       0.96668800       0.68793900
    63  H          0.23946100       0.44943300       0.25194600
    64  H          0.76053900       0.94943300       0.74805400
    65  C          0.75892000       0.46044190       0.43042130
    66  C          0.24108000       0.96044190       0.56957870
    67  H          0.66103600       0.46291900       0.42774800
    68  H          0.33896400       0.96291900       0.57225200
    69  C          0.81552000       0.29184170       0.18866130
    70  C          0.18448000       0.79184170       0.81133870
    71  H          0.82199900       0.30907000       0.13447200
    72  H          0.17800100       0.80907000       0.86552800
    73  C          0.34772000       0.57524150       0.21212110
    74  C          0.65228000       0.07524150       0.78787890
    75  C          0.44552000       0.75744160       0.29044110
    76  C          0.55448000       0.25744160       0.70955890
    77  H          0.52853000       0.80774300       0.29892400
    78  H          0.47147000       0.30774300       0.70107600
    79  C          0.92752000       0.22303170       0.24039130
    80  C          0.07248000       0.72303170       0.75960870
    81  C          0.95403000       0.51962000       0.38087150
    82  C          0.04597000       0.01962000       0.61912850
    83  H         -0.00985400       0.56293200       0.34431700
    84  H          0.00985400       0.06293200       0.65568300
    85  C          0.09722000       0.59538170       0.10435120
    86  C          0.90278000       0.09538170       0.89564880
    87  H          0.03847900       0.65413600       0.06977800
    88  H          0.96152100       0.15413600       0.93022200
    89  C          0.31862000       0.83061160       0.14602120
    90  C          0.68138000       0.33061160       0.85397880
    91  C          0.14822000       0.52293180       0.04361120
    92  C          0.85178000       0.02293180       0.95638880
    93  H          0.06635600       0.48085200       0.00965300
    94  H          0.93364400       0.98085200       0.99034700
    95  H          0.18214800       0.57045500       0.00530400
    96  H          0.81785200       0.07045500      -0.00530400
    97  C          0.46152000       0.86817180       0.13736130
    98  C          0.53848000       0.36817180       0.86263870
    99  H          0.53526900       0.81662200       0.16606000
   100  H          0.46473100       0.31662200       0.83394000
   101  H          0.48338700       0.94073500       0.16219700
   102  H          0.51661300       0.44073500       0.83780300
   103  H          0.45789300       0.87134900       0.07825900
   104  H          0.54210700       0.37134900       0.92174100
   105  C          0.70522000       0.33263160       0.21036130
   106  C          0.29478000       0.83263160       0.78963870
   107  H          0.69682100       0.31860800       0.26464600
   108  H          0.30317900       0.81860800       0.73535400
   109  C          0.53513000       0.72452000       0.66390140
   110  C          0.46487000       0.22452000       0.33609860
   111  H          0.58288500       0.75615400       0.71602500
   112  H          0.41711500       0.25615400       0.28397500
   113  C          0.85033000       0.39412000       0.48847150
   114  C          0.14967000       0.89412000       0.51152850
   115  H          0.81500500       0.35120900       0.52559300
   116  H          0.18499500       0.85120900       0.47440700
   117  C          0.03263000       0.18222000       0.20687150
   118  C          0.96737000       0.68222000       0.79312850
   119  H          0.03076900       0.19962700       0.15122800
   120  H          0.96923100       0.69962700       0.84877200
   121  C          0.93353000       0.19572000       0.32234150
   122  C          0.06647000       0.69572000       0.67765850
   123  H          0.86338400       0.22300500       0.34638600
   124  H          0.13661600       0.72300500       0.65361400
   125  C          0.56223000       0.76182000       0.59167140
   126  C          0.43777000       0.26182000       0.40832860
   127  H          0.63056400       0.81755600       0.59447400
   128  H          0.36943600       0.31755600       0.40552600
   129  C         -0.00112000       0.53524190       0.14638140
   130  C          0.00112000       0.03524190       0.85361860
   131  H          0.04806700       0.47128900       0.17607000
   132  H          0.95193300       0.97128900       0.82393000
   133  H          0.91323200       0.51175900       0.10400600
   134  H          0.08676800       0.01175900       0.89599400
   135  H          0.97263500       0.58420700       0.18594400
   136  H          0.02736500       0.08420700       0.81405600
   137  C         -0.00717000       0.39022000       0.49241150
   138  C          0.00717000       0.89022000       0.50758850
   139  H          0.05516200       0.34445600       0.53202900
   140  H          0.94483800       0.84445600       0.46797100
   141  C          0.20643000       0.90918190       0.09497140
   142  C          0.79357000       0.40918190       0.90502860
   143  H          0.20815300       0.90766600       0.03667200
   144  H          0.79184700       0.40766600       0.96332800
   145  H          0.22688700       0.98327800       0.11701800
   146  H          0.77311300       0.48327800       0.88298200
   147  H          0.11246700       0.88687900       0.09853400
   148  H          0.88753300       0.38687900       0.90146600
   149  C          0.86157000       0.88332000       0.21280180
   150  C          0.13843000       0.38332000       0.78719820
   151  H          0.88689500       0.95722300       0.19985100
   152  H          0.11310500       0.45722300       0.80014900
   153  H          0.80293800       0.88709100       0.25145000
   154  H          0.19706200       0.38709100       0.74855000
   155  H          0.80851900       0.84684900       0.16139500
   156  H          0.19148100       0.34684900       0.83860500
   157  C          0.04453000       0.45302000       0.43866160
   158  C          0.95547000       0.95302000       0.56133840
   159  H          0.14236700       0.45039000       0.44147000
   160  H          0.85763300       0.95039000       0.55853000
   161  C          0.14303000       0.08942000       0.33478180
   162  C          0.85697000       0.58942000       0.66521820
   163  H          0.21577000       0.04336100       0.36670700
   164  H          0.78423000       0.54336100       0.63329300
   165  C          0.43943000       0.64202000       0.66024150
   166  C          0.56057000       0.14202000       0.33975850
   167  H          0.42176600       0.61595100       0.70992100
   168  H          0.57823400       0.11595100       0.29007900
   169  C          0.13953000       0.11652000       0.25453190
   170  C          0.86047000       0.61652000       0.74546810
   171  H          0.21120000       0.08985100       0.23147300
   172  H          0.78880000       0.58985100       0.76852700
   173  C          0.04023000       0.12952000       0.36880180
   174  C          0.95977000       0.62952000       0.63119820
   175  H          0.04281800       0.11143300       0.42445300
   176  H          0.95718200       0.61143300       0.57554700
   177  C          0.39153000       0.63632000       0.51203150
   178  C          0.60847000       0.13632000       0.48796850
   179  H          0.33942800       0.60717500       0.45978500
   180  H          0.66057200       0.10717500       0.54021500
   181  C          0.36904000       0.59673000       0.58486170
   182  C          0.63096000       0.09673000       0.41513830
   183  H          0.30466400       0.53819200       0.58271300
   184  H          0.69533600       0.03819200       0.41728700
   185  O          0.40502000       0.18149140       0.12750100
   186  O          0.59498000       0.68149140       0.87249900
   187  C          0.43183000       0.16208170       0.06224130
   188  C          0.56817000       0.66208170       0.93775870
   189  C          0.57213000       0.11775190       0.06013150
   190  C          0.42787000       0.61775190       0.93986850
   191  H          0.61717900       0.16853800       0.03010100
   192  H          0.38282100       0.66853800       0.96989900
   193  H          0.55856400       0.04700900       0.03172800
   194  H          0.44143600       0.54700900       0.96827200
   195  H          0.63271000       0.10855600       0.11717700
   196  H          0.36729000       0.60855600       0.88282300
   197  C          0.32613000       0.18152000       0.98032840
   198  C          0.67387000       0.68152000       0.01967160
   199  H          0.23516200       0.20258200       0.98922600
   200  H          0.76483800       0.70258200       0.01077400
   201  H          0.31372400       0.11462400       0.94700200
   202  H          0.68627600       0.61462400       0.05299800
   203  H          0.35984300       0.24013400       0.95086700
   204  H          0.64015700       0.74013400       0.04913300
