data_GODDEM
_symmetry_space_group_name_H-M    'P1'
_symmetry_Int_Tables_number       1
loop_
_symmetry_equiv_pos_site_id
_symmetry_equiv_pos_as_xyz
1 x,y,z
_cell_length_a                   7.15892
_cell_length_b                   13.68514
_cell_length_c                   14.74144
_cell_angle_alpha                90.0
_cell_angle_beta                 102.03701
_cell_angle_gamma                90.0
loop_
_atom_site_label
_atom_site_type_symbol
_atom_site_fract_x
_atom_site_fract_y
_atom_site_fract_z
     1  C          0.83452000       0.62990110       0.27312100
     2  C          0.16548000       0.12990110       0.22687900
     3  C          0.16548000       0.37009890       0.72687900
     4  C          0.83452000       0.87009890       0.77312100
     5  C          0.84492000       0.64408110       0.17370100
     6  C          0.15508000       0.14408110       0.32629900
     7  C          0.15508000       0.35591890       0.82629900
     8  C          0.84492000       0.85591890       0.67370100
     9  C          0.89542000       0.72931110       0.13393110
    10  C          0.10458000       0.22931110       0.36606890
    11  C          0.10458000       0.27068890       0.86606890
    12  C          0.89542000       0.77068890       0.63393110
    13  H          0.93210000       0.78620000       0.17020000
    14  H          0.06790000       0.28620000       0.32980000
    15  H          0.06790000       0.21380000       0.82980000
    16  H          0.93210000       0.71380000       0.67020000
    17  C          0.89053000       0.72877120       0.03877110
    18  C          0.10947000       0.22877120       0.46122890
    19  C          0.10947000       0.27122880       0.96122890
    20  C          0.89053000       0.77122880       0.53877110
    21  H          0.92490000       0.78610000       0.00980000
    22  H          0.07510000       0.28610000       0.49020000
    23  H          0.07510000       0.21390000       0.99020000
    24  H          0.92490000       0.71390000       0.50980000
    25  C          0.83603000       0.64535130       0.98558890
    26  C          0.16397000       0.14535130       0.51441110
    27  C          0.16397000       0.35464870       0.01441110
    28  C          0.83603000       0.85464870       0.48558890
    29  H          0.83260000       0.64710000       0.92080000
    30  H          0.16740000       0.14710000       0.57920000
    31  H          0.16740000       0.35290000       0.07920000
    32  H          0.83260000       0.85290000       0.42080000
    33  C          0.78612000       0.55917120       0.02548110
    34  C          0.21388000       0.05917120       0.47451890
    35  C          0.21388000       0.44082880       0.97451890
    36  C          0.78612000       0.94082880       0.52548110
    37  H          0.74920000       0.50210000       0.98960000
    38  H          0.25080000       0.00210000       0.51040000
    39  H          0.25080000       0.49790000       0.01040000
    40  H          0.74920000      -0.00210000       0.48960000
    41  C          0.79342000       0.56134110       0.12008100
    42  C          0.20658000       0.06134110       0.37991900
    43  C          0.20658000       0.43865890       0.87991900
    44  C          0.79342000       0.93865890       0.62008100
    45  N          0.77572000       0.53490100       0.28461900
    46  N          0.22428000       0.03490100       0.21538100
    47  N          0.22428000       0.46509900       0.71538100
    48  N          0.77572000       0.96509900       0.78461900
    49  O          0.86926190       0.68982900       0.33428800
    50  O          0.13073810       0.18982900       0.16571200
    51  O          0.13073810       0.31017100       0.66571200
    52  O          0.86926190       0.81017100       0.83428800
    53  O          0.88542180       0.39040900       0.20110900
    54  O          0.11457820       0.89040900       0.29889100
    55  O          0.11457820       0.60959100       0.79889100
    56  O          0.88542180       0.10959100       0.70110900
    57  O          0.54715170       0.43436900       0.16653800
    58  O          0.45284830       0.93436900       0.33346200
    59  O          0.45284830       0.56563100       0.83346200
    60  O          0.54715170       0.06563100       0.66653800
    61  Br         0.75161200       0.48237200       0.40580200
    62  Br         0.24838800       0.98237200       0.09419800
    63  Br         0.24838800       0.51762800       0.59419800
    64  Br         0.75161200       0.01762800       0.90580200
    65  S          0.74245500       0.46543300       0.19076300
    66  S          0.25754500       0.96543300       0.30923700
    67  S          0.25754500       0.53456700       0.80923700
    68  S          0.74245500       0.03456700       0.69076300
    69  C          0.64753000       0.34039120       0.55781120
    70  C          0.35247000       0.84039120       0.94218880
    71  C          0.35247000       0.65960880       0.44218880
    72  C          0.64753000       0.15960880       0.05781120
    73  H          0.61830000       0.29730000       0.50630000
    74  H          0.38170000       0.79730000      -0.00630000
    75  H          0.38170000       0.70270000       0.49370000
    76  H          0.61830000       0.20270000       0.00630000
    77  C          0.61793000       0.30939120       0.64341120
    78  C          0.38207000       0.80939120       0.85658880
    79  C          0.38207000       0.69060880       0.35658880
    80  C          0.61793000       0.19060880       0.14341120
    81  H          0.56800000       0.24620000       0.65080000
    82  H          0.43200000       0.74620000       0.84920000
    83  H          0.43200000       0.75380000       0.34920000
    84  H          0.56800000       0.25380000       0.15080000
    85  C          0.66302000       0.37315130       0.71786110
    86  C          0.33698000       0.87315130       0.78213890
    87  C          0.33698000       0.62684870       0.28213890
    88  C          0.66302000       0.12684870       0.21786110
    89  C          0.73282000       0.46624130       0.70559110
    90  C          0.26718000       0.96624130       0.79440890
    91  C          0.26718000       0.53375870       0.29440890
    92  C          0.73282000       0.03375870       0.20559110
    93  H          0.76280000       0.51100000       0.75580000
    94  H          0.23720000       0.01100000       0.74420000
    95  H          0.23720000       0.48900000       0.24420000
    96  H          0.76280000       0.98900000       0.25580000
    97  C          0.75662000       0.49106120       0.61768120
    98  C          0.24338000      -0.00893880       0.88231880
    99  C          0.24338000       0.50893880       0.38231880
   100  C          0.75662000       0.00893880       0.11768120
   101  H          0.80360000       0.55430000       0.60790000
   102  H          0.19640000       0.05430000       0.89210000
   103  H          0.19640000       0.44570000       0.39210000
   104  H          0.80360000       0.94570000       0.10790000
   105  C          0.63823000       0.34384150       0.80894130
   106  C          0.36177000       0.84384150       0.69105870
   107  C          0.36177000       0.65615850       0.19105870
   108  C          0.63823000       0.15615850       0.30894130
   109  N          0.71599190       0.42935100       0.54619900
   110  N          0.28400810       0.92935100       0.95380100
   111  N          0.28400810       0.57064900       0.45380100
   112  N          0.71599190       0.07064900       0.04619900
   113  N          0.61873000       0.32109170       0.88122130
   114  N          0.38127000       0.82109170       0.61877870
   115  N          0.38127000       0.67890830       0.11877870
   116  N          0.61873000       0.17890830       0.38122130
