data_GODDIQ
_symmetry_space_group_name_H-M    'P1'
_symmetry_Int_Tables_number       1
loop_
_symmetry_equiv_pos_site_id
_symmetry_equiv_pos_as_xyz
1 x,y,z
_cell_length_a                   7.82674
_cell_length_b                   16.14149
_cell_length_c                   24.008214
_cell_angle_alpha                90.0
_cell_angle_beta                 90.0
_cell_angle_gamma                90.0
loop_
_atom_site_label
_atom_site_type_symbol
_atom_site_fract_x
_atom_site_fract_y
_atom_site_fract_z
     1  Br         0.44916200       0.17835200       0.13750200
     2  Br         0.05083800       0.82164800       0.63750200
     3  Br         0.94916200       0.32164800       0.86249800
     4  Br         0.55083800       0.67835200       0.36249800
     5  Br         0.55083800       0.82164800       0.86249800
     6  Br         0.94916200       0.17835200       0.36249800
     7  Br         0.05083800       0.67835200       0.13750200
     8  Br         0.44916200       0.32164800       0.63750200
     9  S          0.70806500       0.03137300       0.13330200
    10  S          0.79193500       0.96862700       0.63330200
    11  S          0.20806500       0.46862700       0.86669800
    12  S          0.29193500       0.53137300       0.36669800
    13  S          0.29193500       0.96862700       0.86669800
    14  S          0.20806500       0.03137300       0.36669800
    15  S          0.79193500       0.53137300       0.13330200
    16  S          0.70806500       0.46862700       0.63330200
    17  O          0.57786170       0.14140800       0.26232500
    18  O          0.92213830       0.85859200       0.76232500
    19  O          0.07786170       0.35859200       0.73767500
    20  O          0.42213830       0.64140800       0.23767500
    21  O          0.42213830       0.85859200       0.73767500
    22  O          0.07786170       0.14140800       0.23767500
    23  O          0.92213830       0.64140800       0.26232500
    24  O          0.57786170       0.35859200       0.76232500
    25  O          0.57045160       0.99064200       0.10517500
    26  O          0.92954840       0.00935800       0.60517500
    27  O          0.07045160       0.50935800       0.89482500
    28  O          0.42954840       0.49064200       0.39482500
    29  O          0.42954840       0.00935800       0.89482500
    30  O          0.07045160       0.99064200       0.39482500
    31  O          0.92954840       0.49064200       0.10517500
    32  O          0.57045160       0.50935800       0.60517500
    33  O          0.84776170       0.05822900       0.09953500
    34  O          0.65223830       0.94177100       0.59953500
    35  O          0.34776170       0.44177100       0.90046500
    36  O          0.15223830       0.55822900       0.40046500
    37  O          0.15223830       0.94177100       0.90046500
    38  O          0.34776170       0.05822900       0.40046500
    39  O          0.65223830       0.55822900       0.09953500
    40  O          0.84776170       0.44177100       0.59953500
    41  N          0.63624180       0.10999900       0.17106600
    42  N          0.86375820       0.89000100       0.67106600
    43  N          0.13624180       0.39000100       0.82893400
    44  N          0.36375820       0.60999900       0.32893400
    45  N          0.36375820       0.89000100       0.82893400
    46  N          0.13624180       0.10999900       0.32893400
    47  N          0.86375820       0.60999900       0.17106600
    48  N          0.63624180       0.39000100       0.67106600
    49  C          0.88862000       0.86301890       0.24389900
    50  C          0.61138000       0.13698110       0.74389900
    51  C          0.38862000       0.63698110       0.75610100
    52  C          0.11138000       0.36301890       0.25610100
    53  C          0.11138000       0.13698110       0.75610100
    54  C          0.38862000       0.86301890       0.25610100
    55  C          0.61138000       0.36301890       0.24389900
    56  C          0.88862000       0.63698110       0.74389900
    57  H          0.94020000       0.80990000       0.24620000
    58  H          0.55980000       0.19010000       0.74620000
    59  H          0.44020000       0.69010000       0.75380000
    60  H          0.05980000       0.30990000       0.25380000
    61  H          0.05980000       0.19010000       0.75380000
    62  H          0.44020000       0.80990000       0.25380000
    63  H          0.55980000       0.30990000       0.24620000
    64  H          0.94020000       0.69010000       0.74620000
    65  C          0.77612000       0.97412900       0.19141700
    66  C          0.72388000       0.02587100       0.69141700
    67  C          0.27612000       0.52587100       0.80858300
    68  C          0.22388000       0.47412900       0.30858300
    69  C          0.22388000       0.02587100       0.80858300
    70  C          0.27612000       0.97412900       0.30858300
    71  C          0.72388000       0.47412900       0.19141700
    72  C          0.77612000       0.52587100       0.69141700
    73  C          0.73332000       0.01673100       0.23937700
    74  C          0.76668000       0.98326900       0.73937700
    75  C          0.23332000       0.48326900       0.76062300
    76  C          0.26668000       0.51673100       0.26062300
    77  C          0.26668000       0.98326900       0.76062300
    78  C          0.23332000       0.01673100       0.26062300
    79  C          0.76668000       0.51673100       0.23937700
    80  C          0.73332000       0.48326900       0.73937700
    81  C          0.85362000       0.89719890       0.19196800
    82  C          0.64638000       0.10280110       0.69196800
    83  C          0.35362000       0.60280110       0.80803200
    84  C          0.14638000       0.39719890       0.30803200
    85  C          0.14638000       0.10280110       0.80803200
    86  C          0.35362000       0.89719890       0.30803200
    87  C          0.64638000       0.39719890       0.19196800
    88  C          0.85362000       0.60280110       0.69196800
    89  H          0.88150000       0.86900000       0.15840000
    90  H          0.61850000       0.13100000       0.65840000
    91  H          0.38150000       0.63100000       0.84160000
    92  H          0.11850000       0.36900000       0.34160000
    93  H          0.11850000       0.13100000       0.84160000
    94  H          0.38150000       0.86900000       0.34160000
    95  H          0.61850000       0.36900000       0.15840000
    96  H          0.88150000       0.63100000       0.65840000
    97  C          0.64142000       0.09595100       0.22813700
    98  C          0.85858000       0.90404900       0.72813700
    99  C          0.14142000       0.40404900       0.77186300
   100  C          0.35858000       0.59595100       0.27186300
   101  C          0.35858000       0.90404900       0.77186300
   102  C          0.14142000       0.09595100       0.27186300
   103  C          0.85858000       0.59595100       0.22813700
   104  C          0.64142000       0.40404900       0.72813700
   105  C          0.77032000       0.98308890       0.29101700
   106  C          0.72968000       0.01691110       0.79101700
   107  C          0.27032000       0.51691110       0.70898300
   108  C          0.22968000       0.48308890       0.20898300
   109  C          0.22968000       0.01691110       0.70898300
   110  C          0.27032000       0.98308890       0.20898300
   111  C          0.72968000       0.48308890       0.29101700
   112  C          0.77032000       0.51691110       0.79101700
   113  H          0.74310000       0.01180000       0.32440000
   114  H          0.75690000       0.98820000       0.82440000
   115  H          0.24310000       0.48820000       0.67560000
   116  H          0.25690000       0.51180000       0.17560000
   117  H          0.25690000       0.98820000       0.67560000
   118  H          0.24310000       0.01180000       0.17560000
   119  H          0.75690000       0.51180000       0.32440000
   120  H          0.74310000       0.48820000       0.82440000
   121  C          0.84893000       0.90569880       0.29238800
   122  C          0.65107000       0.09430120       0.79238800
   123  C          0.34893000       0.59430120       0.70761200
   124  C          0.15107000       0.40569880       0.20761200
   125  C          0.15107000       0.09430120       0.70761200
   126  C          0.34893000       0.90569880       0.20761200
   127  C          0.65107000       0.40569880       0.29238800
   128  C          0.84893000       0.59430120       0.79238800
   129  H          0.87610000       0.88150000       0.32740000
   130  H          0.62390000       0.11850000       0.82740000
   131  H          0.37610000       0.61850000       0.67260000
   132  H          0.12390000       0.38150000       0.17260000
   133  H          0.12390000       0.11850000       0.67260000
   134  H          0.37610000       0.88150000       0.17260000
   135  H          0.62390000       0.38150000       0.32740000
   136  H          0.87610000       0.61850000       0.82740000
   137  O          0.84089850       0.41283800       0.98702500
   138  O          0.65910150       0.58716200       0.48702500
   139  O          0.34089850       0.08716200       0.01297500
   140  O          0.15910150       0.91283800       0.51297500
   141  O          0.15910150       0.58716200       0.01297500
   142  O          0.34089850       0.41283800       0.51297500
   143  O          0.65910150       0.91283800       0.98702500
   144  O          0.84089850       0.08716200       0.48702500
   145  N          0.23338180       0.24554900       0.09970600
   146  N          0.26661820       0.75445100       0.59970600
   147  N          0.73338180       0.25445100       0.90029400
   148  N          0.76661820       0.74554900       0.40029400
   149  N          0.76661820       0.75445100       0.90029400
   150  N          0.73338180       0.24554900       0.40029400
   151  N          0.26661820       0.74554900       0.09970600
   152  N          0.23338180       0.25445100       0.59970600
   153  O          0.65816840       0.35270900       0.04678600
   154  O          0.84183160       0.64729100       0.54678600
   155  O          0.15816840       0.14729100       0.95321400
   156  O          0.34183160       0.85270900       0.45321400
   157  O          0.34183160       0.64729100       0.95321400
   158  O          0.15816840       0.35270900       0.45321400
   159  O          0.84183160       0.85270900       0.04678600
   160  O          0.65816840       0.14729100       0.54678600
   161  C          0.95478000       0.32037100       0.05180700
   162  C          0.54522000       0.67962900       0.55180700
   163  C          0.45478000       0.17962900       0.94819300
   164  C          0.04522000       0.82037100       0.44819300
   165  C          0.04522000       0.67962900       0.94819300
   166  C          0.45478000       0.32037100       0.44819300
   167  C          0.54522000       0.82037100       0.05180700
   168  C          0.95478000       0.17962900       0.55180700
   169  C          0.80028000       0.36310100       0.02882700
   170  C          0.69972000       0.63689900       0.52882700
   171  C          0.30028000       0.13689900       0.97117300
   172  C          0.19972000       0.86310100       0.47117300
   173  C          0.19972000       0.63689900       0.97117300
   174  C          0.30028000       0.36310100       0.47117300
   175  C          0.69972000       0.86310100       0.02882700
   176  C          0.80028000       0.13689900       0.52882700
   177  C          0.11812000       0.33858110       0.03289700
   178  C          0.38188000       0.66141890       0.53289700
   179  C          0.61812000       0.16141890       0.96710300
   180  C          0.88188000       0.83858110       0.46710300
   181  C          0.88188000       0.66141890       0.96710300
   182  C          0.61812000       0.33858110       0.46710300
   183  C          0.38188000       0.83858110       0.03289700
   184  C          0.11812000       0.16141890       0.53289700
   185  H          0.13500000       0.37650000       0.00310000
   186  H          0.36500000       0.62350000       0.50310000
   187  H          0.63500000       0.12350000      -0.00310000
   188  H          0.86500000       0.87650000       0.49690000
   189  H          0.86500000       0.62350000      -0.00310000
   190  H          0.63500000       0.37650000       0.49690000
   191  H          0.36500000       0.87650000       0.00310000
   192  H          0.13500000       0.12350000       0.50310000
   193  C          0.70148000       0.45922120       0.96298200
   194  C          0.79852000       0.54077880       0.46298200
   195  C          0.20148000       0.04077880       0.03701800
   196  C          0.29852000       0.95922120       0.53701800
   197  C          0.29852000       0.54077880       0.03701800
   198  C          0.20148000       0.45922120       0.53701800
   199  C          0.79852000       0.95922120       0.96298200
   200  C          0.70148000       0.04077880       0.46298200
   201  H          0.61140000       0.42100000       0.95110000
   202  H          0.88860000       0.57900000       0.45110000
   203  H          0.11140000       0.07900000       0.04890000
   204  H          0.38860000       0.92100000       0.54890000
   205  H          0.38860000       0.57900000       0.04890000
   206  H          0.11140000       0.42100000       0.54890000
   207  H          0.88860000       0.92100000       0.95110000
   208  H          0.61140000       0.07900000       0.45110000
   209  H          0.74300000       0.49050000       0.93070000
   210  H          0.75700000       0.50950000       0.43070000
   211  H          0.24300000       0.00950000       0.06930000
   212  H          0.25700000       0.99050000       0.56930000
   213  H          0.25700000       0.50950000       0.06930000
   214  H          0.24300000       0.49050000       0.56930000
   215  H          0.75700000       0.99050000       0.93070000
   216  H          0.74300000       0.00950000       0.43070000
   217  H          0.65560000       0.49770000       0.99080000
   218  H          0.84440000       0.50230000       0.49080000
   219  H          0.15560000       0.00230000       0.00920000
   220  H          0.34440000      -0.00230000       0.50920000
   221  H          0.34440000       0.50230000       0.00920000
   222  H          0.15560000       0.49770000       0.50920000
   223  H          0.84440000      -0.00230000       0.99080000
   224  H          0.65560000       0.00230000       0.49080000
   225  C          0.93318000       0.26263110       0.09394700
   226  C          0.56682000       0.73736890       0.59394700
   227  C          0.43318000       0.23736890       0.90605300
   228  C          0.06682000       0.76263110       0.40605300
   229  C          0.06682000       0.73736890       0.90605300
   230  C          0.43318000       0.26263110       0.40605300
   231  C          0.56682000       0.76263110       0.09394700
   232  C          0.93318000       0.23736890       0.59394700
   233  H          0.82210000       0.24840000       0.10670000
   234  H          0.67790000       0.75160000       0.60670000
   235  H          0.32210000       0.25160000       0.89330000
   236  H          0.17790000       0.74840000       0.39330000
   237  H          0.17790000       0.75160000       0.89330000
   238  H          0.32210000       0.24840000       0.39330000
   239  H          0.67790000       0.74840000       0.10670000
   240  H          0.82210000       0.25160000       0.60670000
   241  C          0.25592000       0.30027110       0.05826700
   242  C          0.24408000       0.69972890       0.55826700
   243  C          0.75592000       0.19972890       0.94173300
   244  C          0.74408000       0.80027110       0.44173300
   245  C          0.74408000       0.69972890       0.94173300
   246  C          0.75592000       0.30027110       0.44173300
   247  C          0.24408000       0.80027110       0.05826700
   248  C          0.25592000       0.19972890       0.55826700
   249  H          0.36840000       0.31290000       0.04610000
   250  H          0.13160000       0.68710000       0.54610000
   251  H          0.86840000       0.18710000       0.95390000
   252  H          0.63160000       0.81290000       0.45390000
   253  H          0.63160000       0.68710000       0.95390000
   254  H          0.86840000       0.31290000       0.45390000
   255  H          0.13160000       0.81290000       0.04610000
   256  H          0.36840000       0.18710000       0.54610000
   257  C          0.07642000       0.22608110       0.11701700
   258  C          0.42358000       0.77391890       0.61701700
   259  C          0.57642000       0.27391890       0.88298300
   260  C          0.92358000       0.72608110       0.38298300
   261  C          0.92358000       0.77391890       0.88298300
   262  C          0.57642000       0.22608110       0.38298300
   263  C          0.42358000       0.72608110       0.11701700
   264  C          0.07642000       0.27391890       0.61701700
   265  H          0.06280000       0.18620000       0.14580000
   266  H          0.43720000       0.81380000       0.64580000
   267  H          0.56280000       0.31380000       0.85420000
   268  H          0.93720000       0.68620000       0.35420000
   269  H          0.93720000       0.81380000       0.85420000
   270  H          0.56280000       0.18620000       0.35420000
   271  H          0.43720000       0.68620000       0.14580000
   272  H          0.06280000       0.31380000       0.64580000
