data_GOKCEQ
_symmetry_space_group_name_H-M    'P1'
_symmetry_Int_Tables_number       1
loop_
_symmetry_equiv_pos_site_id
_symmetry_equiv_pos_as_xyz
1 x,y,z
_cell_length_a                   3.7865
_cell_length_b                   7.9381
_cell_length_c                   20.943
_cell_angle_alpha                90.0
_cell_angle_beta                 95.163
_cell_angle_gamma                90.0
loop_
_atom_site_label
_atom_site_type_symbol
_atom_site_fract_x
_atom_site_fract_y
_atom_site_fract_z
     1  O          0.16578000       0.25003000       0.46154110
     2  O          0.83422000       0.75003000       0.53845890
     3  O          0.92982000       0.09563000       0.38033120
     4  O          0.07018000       0.59563000       0.61966880
     5  C          0.01711200       0.11616000       0.43552000
     6  C         -0.01711200       0.61616000       0.56448000
     7  H          0.18013000       0.34080000       0.42620000
     8  H          0.81987000       0.84080000       0.57380000
     9  H         -0.02010000       0.02960000       0.46581700
    10  H          0.02010000       0.52960000       0.53418300
    11  O          0.74988000       0.25244000       0.03584110
    12  O          0.25012000       0.75244000       0.96415890
    13  O          0.94878000       0.42574000       0.11353130
    14  O          0.05122000       0.92574000       0.88646870
    15  C          0.89631100       0.39136000       0.05876190
    16  C          0.10368900       0.89136000       0.94123810
    17  H          0.69610000       0.16650000       0.07461800
    18  H          0.30390000       0.66650000       0.92538200
    19  H         -0.03510000       0.47250000       0.02461600
    20  H          0.03510000       0.97250000       0.97538400
    21  N          0.25757000       0.47853000       0.37529120
    22  N          0.74243000       0.97853000       0.62470880
    23  N          0.58977000       0.04594000       0.12685120
    24  N          0.41023000       0.54594000       0.87314880
    25  C          0.16399000       0.44135000       0.31345140
    26  C          0.83601000       0.94135000       0.68654860
    27  C          0.21708000       0.54904000       0.26347130
    28  C          0.78292000       0.04904000       0.73652870
    29  C          0.36997000       0.70604000       0.27712130
    30  C          0.63003000       0.20604000       0.72287870
    31  C          0.46228000       0.74544000       0.34163130
    32  C          0.53772000       0.24544000       0.65836870
    33  C          0.40209000       0.62965000       0.38824140
    34  C          0.59791000       0.12965000       0.61175860
    35  C          0.52781100       0.10375000       0.18516160
    36  C          0.47218900       0.60375000       0.81483840
    37  C          0.45431000      -0.00246000       0.23504160
    38  C          0.54569000       0.49754000       0.76495840
    39  C          0.44137000       0.82584000       0.22480130
    40  C          0.55863000       0.32584000       0.77519870
    41  C          0.50489000       0.76795000       0.16433140
    42  C          0.49511000       0.26795000       0.83566860
    43  C          0.57731000       0.88085000       0.11726150
    44  C          0.42269000       0.38085000       0.88273850
    45  H          0.07490000       0.33150000       0.30321600
    46  H          0.92510000       0.83150000       0.69678400
    47  H          0.13770000       0.51430000       0.22061200
    48  H          0.86230000       0.01430000       0.77938800
    49  H          0.57570000       0.85240000       0.35181200
    50  H          0.42430000       0.35240000       0.64818800
    51  H          0.46780000       0.65730000       0.43301200
    52  H          0.53220000       0.15730000       0.56698800
    53  H          0.55311000       0.22460000       0.19431900
    54  H          0.44689000       0.72460000       0.80568100
    55  H          0.41080000       0.04340000       0.27441500
    56  H          0.58920000       0.54340000       0.72558500
    57  H          0.49311000       0.64260000       0.15381700
    58  H          0.50689000       0.14260000       0.84618300
    59  H          0.60410000       0.84250000       0.07501600
    60  H          0.39590000       0.34250000       0.92498400
