data_GOKQUV
_symmetry_space_group_name_H-M    'P1'
_symmetry_Int_Tables_number       1
loop_
_symmetry_equiv_pos_site_id
_symmetry_equiv_pos_as_xyz
1 x,y,z
_cell_length_a                   6.59517
_cell_length_b                   12.593213
_cell_length_c                   13.154916
_cell_angle_alpha                116.79511
_cell_angle_beta                 95.6579
_cell_angle_gamma                102.3119
loop_
_atom_site_label
_atom_site_type_symbol
_atom_site_fract_x
_atom_site_fract_y
_atom_site_fract_z
     1  O          0.77749190       0.03854120       0.18666120
     2  O          0.22250810       0.96145880       0.81333880
     3  O          0.46772000       0.08253150       0.19181140
     4  O          0.53228000       0.91746850       0.80818860
     5  O          0.19682000      -0.01121160       0.28149160
     6  O          0.80318000       0.01121160       0.71850840
     7  H          0.24020200       0.02714000       0.24770100
     8  H          0.75979800       0.97286000       0.75229900
     9  C          0.54832000       0.96296860       0.27954140
    10  C          0.45168000       0.03703140       0.72045860
    11  C          0.70163000       0.91746850       0.31429150
    12  C          0.29837000       0.08253150       0.68570850
    13  H          0.83393000       0.92994000       0.29560800
    14  H          0.16607000       0.07006000       0.70439200
    15  C          0.59403000       0.03316150       0.21558150
    16  C          0.40597000       0.96683850       0.78441850
    17  C          0.35013000       0.94362840       0.30848160
    18  C          0.64987000       0.05637160       0.69151840
    19  C          0.65913000       0.85431830       0.37595160
    20  C          0.34087000       0.14568170       0.62404840
    21  H          0.76238700       0.82502400       0.39954500
    22  H          0.23761300       0.17497600       0.60045500
    23  C          0.30793000       0.87769830       0.36925170
    24  C          0.69207000       0.12230170       0.63074830
    25  H          0.17529200       0.86296500       0.38709700
    26  H          0.82470800       0.13703500       0.61290300
    27  C          0.46113000       0.83496840       0.40238160
    28  C          0.53887000       0.16503160       0.59761840
    29  H          0.43199500       0.79194300       0.44356700
    30  H          0.56800500       0.20805700       0.55643300
    31  H          0.81640000       0.09720000       0.15020000
    32  H          0.18360000       0.90280000       0.84980000
    33  N          0.62637190       0.47317110       0.10396100
    34  N          0.37362810       0.52682890       0.89603900
    35  N          0.89712000       0.17869120       0.09440120
    36  N          0.10288000       0.82130880       0.90559880
    37  C          0.69122000       0.51614130       0.22629120
    38  C          0.30878000       0.48385870       0.77370880
    39  C          0.83512000       0.31828130       0.02525120
    40  C          0.16488000       0.68171870       0.97474880
    41  C          0.49972000       0.52362130       0.05830120
    42  C          0.50028000       0.47637870       0.94169880
    43  C          0.62742000       0.39433130       0.91111870
    44  C          0.37258000       0.60566870       0.08888130
    45  H          0.65367700       0.34945000       0.83771000
    46  H          0.34632300       0.65055000       0.16229000
    47  C          0.70422000       0.39440130       0.01220130
    48  C          0.29578000       0.60559870       0.98779870
    49  C          0.01152000       0.30721140       0.97602860
    50  C         -0.01152000       0.69278860       0.02397140
    51  H          0.04990100       0.34941300       0.93506600
    52  H          0.95009900       0.65058700       0.06493400
    53  C          0.53913000       0.52049150       0.29149140
    54  C          0.46087000       0.47950850       0.70850860
    55  H          0.39529600       0.48955900       0.25515400
    56  H          0.60470400       0.51044100       0.74484600
    57  C          0.13013000       0.23350150      -0.01218150
    58  C          0.86987000       0.76649850       0.01218150
    59  H          0.24849600       0.22560000       0.95520200
    60  H          0.75150400       0.77440000       0.04479800
    61  C          0.78323000       0.25022140       0.08314140
    62  C          0.21677000       0.74977860       0.91685860
    63  H          0.66394600       0.25485500       0.11534300
    64  H          0.33605400       0.74514500       0.88465700
    65  C          0.90483000       0.55978160       0.28109150
    66  C          0.09517000       0.44021840       0.71890850
    67  H          0.00868700       0.55681500       0.23774900
    68  H         -0.00868700       0.44318500       0.76225100
    69  C          0.06913000       0.17192150       0.04897150
    70  C          0.93087000       0.82807850       0.95102850
    71  H          0.15061500       0.12405200       0.05886200
    72  H          0.84938500       0.87594800       0.94113800
    73  C          0.60123000       0.57113170       0.41142150
    74  C          0.39877000       0.42886830       0.58857850
    75  H          0.49719700       0.57484200       0.45477000
    76  H          0.50280300       0.42515800       0.54523000
    77  C          0.81303000       0.61631160       0.46869150
    78  C          0.18697000       0.38368840       0.53130850
    79  C          0.96253000       0.60785170       0.40085160
    80  C          0.03747000       0.39214830       0.59914840
    81  H          0.10616900       0.63526500       0.43674700
    82  H          0.89383100       0.36473500       0.56325300
    83  C          0.87915000       0.67592000       0.60063170
    84  C          0.12085000       0.32408000       0.39936830
    85  H          0.94995800       0.76284200       0.63282700
    86  H          0.05004200       0.23715800       0.36717300
    87  H         -0.02593100       0.63673100       0.62073000
    88  H          0.02593100       0.36326900       0.37927000
    89  H          0.75515300       0.66574600       0.63179600
    90  H          0.24484700       0.33425400       0.36820400
