data_GOMDET
_symmetry_space_group_name_H-M    'P1'
_symmetry_Int_Tables_number       1
loop_
_symmetry_equiv_pos_site_id
_symmetry_equiv_pos_as_xyz
1 x,y,z
_cell_length_a                   9.11846
_cell_length_b                   6.55215
_cell_length_c                   15.13139
_cell_angle_alpha                90.0
_cell_angle_beta                 105.5565
_cell_angle_gamma                90.0
loop_
_atom_site_label
_atom_site_type_symbol
_atom_site_fract_x
_atom_site_fract_y
_atom_site_fract_z
     1  O          0.18054150       0.25000000       0.96935800
     2  O          0.81945850       0.75000000       0.03064200
     3  O          0.44310150       0.25000000       0.75011900
     4  O          0.55689850       0.75000000       0.24988100
     5  N          0.89093170       0.25000000       0.80860100
     6  N          0.10906830       0.75000000       0.19139900
     7  N          0.18366170       0.25000000       0.69844100
     8  N          0.81633830       0.75000000       0.30155900
     9  N          0.90623170       0.25000000       0.66404100
    10  N          0.09376830       0.75000000       0.33595900
    11  N          0.30923170       0.25000000       0.85744100
    12  N          0.69076830       0.75000000       0.14255900
    13  C          0.04382000       0.25000000       0.81200120
    14  C          0.95618000       0.75000000       0.18799880
    15  C          0.31912000       0.25000000       0.76675120
    16  C          0.68088000       0.75000000       0.23324880
    17  C          0.04912000       0.25000000       0.72248120
    18  C          0.95088000       0.75000000       0.27751880
    19  C          0.17582000       0.25000000       0.88768120
    20  C          0.82418000       0.75000000       0.11231880
    21  C          0.45562000       0.25000000       0.92755130
    22  C          0.54438000       0.75000000       0.07244870
    23  H          0.43430000       0.25000000       0.98581800
    24  H          0.56570000       0.75000000       0.01418200
    25  H          0.51431900       0.12630000       0.92141100
    26  H          0.48568100       0.62630000       0.07858900
    27  H          0.48568100       0.87370000       0.07858900
    28  H          0.51431900       0.37370000       0.92141100
    29  C          0.18452000       0.25000000       0.60169130
    30  C          0.81548000       0.75000000       0.39830870
    31  H          0.28830000       0.25000000       0.59831600
    32  H          0.71170000       0.75000000       0.40168400
    33  H          0.13361900       0.13130000       0.57141100
    34  H          0.86638100       0.63130000       0.42858900
    35  H          0.86638100       0.86870000       0.42858900
    36  H          0.13361900       0.36870000       0.57141100
    37  C          0.82282000       0.25000000       0.88557130
    38  C          0.17718000       0.75000000       0.11442870
    39  H          0.71330000       0.25000000       0.85911600
    40  H          0.28670000       0.75000000       0.14088400
    41  H          0.85261900       0.12730000       0.92281100
    42  H          0.14738100       0.62730000       0.07718900
    43  H          0.14738100       0.87270000       0.07718900
    44  H          0.85261900       0.37270000       0.92281100
    45  C          0.81422000       0.25000000       0.72000120
    46  C          0.18578000       0.75000000       0.27999880
    47  H          0.70630000       0.25000000       0.69890000
    48  H          0.29370000       0.75000000       0.30110000
    49  S          0.27510500       0.25000000       0.23407300
    50  S          0.72489500       0.75000000       0.76592700
    51  O          0.55073150       0.25000000       0.53596900
    52  O          0.44926850       0.75000000       0.46403100
    53  O          0.76167150       0.25000000       0.48636900
    54  O          0.23832850       0.75000000       0.51363100
    55  H          0.81230000       0.25000000       0.54581900
    56  H          0.18770000       0.75000000       0.45418100
    57  C          0.61152000       0.25000000       0.47415120
    58  C          0.38848000       0.75000000       0.52584880
    59  C          0.52752000       0.25000000       0.37337130
    60  C          0.47248000       0.75000000       0.62662870
    61  H          0.56031800       0.13330000       0.34571000
    62  H          0.43968200       0.63330000       0.65429000
    63  H          0.43968200       0.86670000       0.65429000
    64  H          0.56031800       0.36670000       0.34571000
    65  C          0.35652000       0.25000000       0.35728120
    66  C          0.64348000       0.75000000       0.64271880
    67  H          0.32221700       0.12820000       0.38371000
    68  H          0.67778300       0.62820000       0.61629000
    69  H          0.67778300       0.87180000       0.61629000
    70  H          0.32221700       0.37180000       0.38371000
    71  C          0.07732000       0.25000000       0.22279120
    72  C          0.92268000       0.75000000       0.77720880
    73  C          0.01342000       0.25000000       0.29699120
    74  C         -0.01342000       0.75000000       0.70300880
    75  H          0.07750000       0.25000000       0.35790000
    76  H          0.92250000       0.75000000       0.64210000
    77  C          0.85648000       0.25000000       0.28180130
    78  C          0.14352000       0.75000000       0.71819870
    79  H          0.81390000       0.25000000       0.33260000
    80  H          0.18610000       0.75000000       0.66740000
    81  C          0.76078000       0.25000000       0.19328130
    82  C          0.23922000       0.75000000       0.80671870
    83  H          0.65340000       0.25000000       0.18330000
    84  H          0.34660000       0.75000000       0.81670000
    85  C          0.82488000       0.25000000       0.11931120
    86  C          0.17512000       0.75000000       0.88068880
    87  H          0.76040000       0.25000000       0.05850000
    88  H          0.23960000       0.75000000       0.94150000
    89  C         -0.01852000       0.25000000       0.13341120
    90  C          0.01852000       0.75000000       0.86658880
    91  H          0.02380000       0.25000000       0.08240000
    92  H          0.97620000       0.75000000       0.91760000
