data_GOQCOI
_symmetry_space_group_name_H-M    'P1'
_symmetry_Int_Tables_number       1
loop_
_symmetry_equiv_pos_site_id
_symmetry_equiv_pos_as_xyz
1 x,y,z
_cell_length_a                   9.59578
_cell_length_b                   9.78468
_cell_length_c                   10.67571
_cell_angle_alpha                96.6287
_cell_angle_beta                 94.8937
_cell_angle_gamma                111.8218
loop_
_atom_site_label
_atom_site_type_symbol
_atom_site_fract_x
_atom_site_fract_y
_atom_site_fract_z
     1  O          0.46013830       0.87482000       0.36452170
     2  O          0.53986170       0.12518000       0.63547830
     3  O          0.09290180       0.79222000       0.68458150
     4  O          0.90709820       0.20778000       0.31541850
     5  O          0.00569180       0.84902000       0.86102160
     6  O         -0.00569180       0.15098000       0.13897840
     7  O          0.56598000       0.48632000       0.75131190
     8  O          0.43402000       0.51368000       0.24868810
     9  O          0.32599830       0.70722000       0.47863160
    10  O          0.67400170       0.29278000       0.52136840
    11  O          0.80501810       0.54173190       0.77030180
    12  O          0.19498190       0.45826810       0.22969820
    13  N          0.69318000       0.56272000       0.73182180
    14  N          0.30682000       0.43728000       0.26817820
    15  C          0.45158000       0.79683000       0.44672000
    16  C          0.54842000       0.20317000       0.55328000
    17  C         -0.00722000       0.81273000       0.74732000
    18  C          0.00722000       0.18727000       0.25268000
    19  C          0.58098000       0.68372000       0.59162000
    20  C          0.41902000       0.31628000       0.40838000
    21  H          0.48780000       0.60730000       0.59270000
    22  H          0.51220000       0.39270000       0.40730000
    23  C          0.70958000       0.68552000       0.66032000
    24  C          0.29042000       0.31448000       0.33968000
    25  C          0.85748000       0.90953000       0.59352000
    26  C          0.14252000       0.09047000       0.40648000
    27  H          0.95020000      -0.01260000       0.59440000
    28  H          0.04980000       0.01260000       0.40560000
    29  C          0.59048000       0.79562000       0.52082000
    30  C          0.40952000       0.20438000       0.47918000
    31  C          0.85068000       0.79783000       0.66472000
    32  C          0.14932000       0.20217000       0.33528000
    33  C          0.73058000       0.90833000       0.52142000
    34  C          0.26942000       0.09167000       0.47858000
    35  H          0.73910000      -0.01660000       0.47290000
    36  H          0.26090000       0.01660000       0.52710000
    37  H          0.21870000       0.71430000       0.41830000
    38  H          0.78130000       0.28570000       0.58170000
    39  H          0.21340000       0.80440000       0.75130000
    40  H          0.78660000       0.19560000       0.24870000
    41  N          0.09092000       0.70372000       0.34305180
    42  N          0.90908000       0.29628000       0.65694820
    43  N          0.31952000       0.80052000       0.83259190
    44  N          0.68048000       0.19948000       0.16740810
    45  C          0.46283000       0.87483000       0.82002000
    46  C          0.53717000       0.12517000       0.17998000
    47  H          0.48510000       0.92470000       0.75060000
    48  H          0.51490000       0.07530000       0.24940000
    49  C          0.57952000       0.87993000       0.90682000
    50  C          0.42048000       0.12007000       0.09318000
    51  H          0.67930000       0.93190000       0.89510000
    52  H          0.32070000       0.06810000       0.10490000
    53  C          0.54982000       0.80862000       0.01082000
    54  C          0.45018000       0.19138000      -0.01082000
    55  C          0.84842000       0.68853000       0.17372000
    56  C          0.15158000       0.31147000       0.82628000
    57  C          0.28873000       0.72913000       0.93202000
    58  C          0.71127000       0.27087000       0.06798000
    59  H          0.18800000       0.67630000       0.94050000
    60  H          0.81200000       0.32370000       0.05950000
    61  C          0.39962000       0.73073000       0.02202000
    62  C          0.60038000       0.26927000       0.97798000
    63  H          0.37420000       0.67960000       0.09030000
    64  H          0.62580000       0.32040000       0.90970000
    65  C          0.95063000       0.63923000       0.36672000
    66  C          0.04937000       0.36077000       0.63328000
    67  H          0.93430000       0.59910000       0.44150000
    68  H          0.06570000       0.40090000       0.55850000
    69  C          0.71873000       0.68153000       0.07972000
    70  C          0.28127000       0.31847000       0.92028000
    71  H          0.63170000       0.59070000       0.08120000
    72  H          0.36830000       0.40930000       0.91880000
    73  H          0.74720000       0.67780000      -0.00530000
    74  H          0.25280000       0.32220000       0.00530000
    75  C          0.11283000       0.76253000       0.23692000
    76  C          0.88717000       0.23747000       0.76308000
    77  H          0.21160000       0.80950000       0.22030000
    78  H          0.78840000       0.19050000       0.77970000
    79  C          0.67513000       0.81373000       0.10852000
    80  C          0.32487000       0.18627000       0.89148000
    81  H          0.64230000       0.81500000       0.19200000
    82  H          0.35770000       0.18500000       0.80800000
    83  H          0.76310000       0.90480000       0.11050000
    84  H          0.23690000       0.09520000       0.88950000
    85  C         -0.00467000       0.75663000       0.15092000
    86  C          0.00467000       0.24337000       0.84908000
    87  H          0.01500000       0.79850000       0.07730000
    88  H         -0.01500000       0.20150000       0.92270000
    89  C          0.82743000       0.62923000       0.28433000
    90  C          0.17257000       0.37077000       0.71567000
    91  H          0.72980000       0.58230000       0.30370000
    92  H          0.27020000       0.41770000       0.69630000
