data_GOTQOZ
_symmetry_space_group_name_H-M    'P1'
_symmetry_Int_Tables_number       1
loop_
_symmetry_equiv_pos_site_id
_symmetry_equiv_pos_as_xyz
1 x,y,z
_cell_length_a                   8.737812
_cell_length_b                   8.828014
_cell_length_c                   9.664117
_cell_angle_alpha                93.94414
_cell_angle_beta                 115.34215
_cell_angle_gamma                91.20212
loop_
_atom_site_label
_atom_site_type_symbol
_atom_site_fract_x
_atom_site_fract_y
_atom_site_fract_z
     1  Cl         0.50056150       0.41375140       0.32242130
     2  Cl         0.49943850       0.58624860       0.67757870
     3  Cl         0.30572160       0.76681850       0.32405850
     4  Cl         0.69427840       0.23318150       0.67594150
     5  O          0.09174000       0.66134000       0.71886000
     6  O          0.90826000       0.33866000       0.28114000
     7  N          0.16694000       0.30844000       0.64306000
     8  N          0.83306000       0.69156000       0.35694000
     9  C          0.39915000       0.37245000       0.12245000
    10  C          0.60085000       0.62755000       0.87755000
    11  C          0.20305000       0.17905000       0.56625000
    12  C          0.79695000       0.82095000       0.43375000
    13  C          0.49195000       0.31695000       0.04765000
    14  C          0.50805000       0.68305000       0.95235000
    15  H          0.60490000       0.29560000       0.10260000
    16  H          0.39510000       0.70440000       0.89740000
    17  C          0.04206000       0.57405000       0.60205000
    18  C          0.95794000       0.42595000       0.39795000
    19  C          0.41356000       0.29325000       0.88805000
    20  C          0.58644000       0.70675000       0.11195000
    21  H          0.47350000       0.25470000       0.83520000
    22  H          0.52650000       0.74530000       0.16480000
    23  C          0.15356000       0.37685000       0.88745000
    24  C          0.84644000       0.62315000       0.11255000
    25  H          0.03910000       0.39390000       0.83370000
    26  H          0.96090000       0.60610000       0.16630000
    27  C          0.20295000       0.03475000       0.61845000
    28  C          0.79705000       0.96525000       0.38155000
    29  H          0.18110000       0.02360000       0.70350000
    30  H          0.81890000       0.97640000       0.29650000
    31  C          0.24006000       0.19475000       0.44235000
    32  C          0.75994000       0.80525000       0.55765000
    33  H          0.24370000       0.29040000       0.40900000
    34  H          0.75630000       0.70960000       0.59100000
    35  C          0.07195000       0.41765000       0.56155000
    36  C          0.92805000       0.58235000       0.43845000
    37  C          0.24465000       0.32745000       0.80815000
    38  C          0.75535000       0.67255000       0.19185000
    39  C          0.27146000       0.06876000       0.36814000
    40  C          0.72854000       0.93124000       0.63186000
    41  H          0.29490000       0.07940000       0.28410000
    42  H          0.70510000       0.92060000       0.71590000
    43  C          0.23056000       0.40125000       0.04695000
    44  C          0.76944000       0.59875000       0.95305000
    45  H          0.16990000       0.43600000       0.10070000
    46  H          0.83010000       0.56400000       0.89930000
    47  C          0.23505000       0.90974000       0.54415000
    48  C          0.76495000       0.09026000       0.45585000
    49  H          0.23440000       0.81410000       0.57860000
    50  H          0.76560000       0.18590000       0.42140000
    51  C          0.26806000       0.92624000       0.41844000
    52  C          0.73194000       0.07376000       0.58156000
    53  C          0.05531600       0.97680000       0.97608300
    54  C          0.94468400       0.02320000       0.02391700
    55  H          0.15020000       0.03310000      -0.01580000
    56  H          0.84980000       0.96690000       0.01580000
    57  H          0.05430000       0.88110000       0.92790000
    58  H          0.94570000       0.11890000       0.07210000
