data_GOVQOX
_symmetry_space_group_name_H-M    'P1'
_symmetry_Int_Tables_number       1
loop_
_symmetry_equiv_pos_site_id
_symmetry_equiv_pos_as_xyz
1 x,y,z
_cell_length_a                   13.80439
_cell_length_b                   8.2341
_cell_length_c                   13.83888
_cell_angle_alpha                90.0
_cell_angle_beta                 110.0804
_cell_angle_gamma                90.0
loop_
_atom_site_label
_atom_site_type_symbol
_atom_site_fract_x
_atom_site_fract_y
_atom_site_fract_z
     1  O          0.87698000       0.70130000       0.90107000
     2  O          0.12302000       0.20130000       0.09893000
     3  O          0.29502000       0.41766000       0.18372000
     4  O          0.70498000       0.91766000       0.81628000
     5  O          0.66973000       0.72167000       0.63773000
     6  O          0.33027000       0.22167000       0.36227000
     7  O          0.22242000       0.92836000       0.07912000
     8  O          0.77758000       0.42836000       0.92088000
     9  N          0.69334000       0.45999000       0.68653000
    10  N          0.30666000       0.95999000       0.31347000
    11  C          0.08944000       0.50108000       0.83326000
    12  C          0.91056000       0.00108000       0.16674000
    13  C          0.00274000       0.51928000       0.87726000
    14  C         -0.00274000       0.01928000       0.12274000
    15  C          0.95527000       0.68518000       0.85326000
    16  C          0.04473000       0.18518000       0.14674000
    17  C          0.03683000       0.81367000       0.89596000
    18  C          0.96317000       0.31367000       0.10404000
    19  C          0.12633000       0.79937000       0.85347000
    20  C          0.87367000       0.29937000       0.14653000
    21  C          0.20453000       0.93668000       0.89597000
    22  C          0.79547000       0.43668000       0.10403000
    23  C          0.27523000       0.91177000       0.00673000
    24  C          0.72477000       0.41177000      -0.00673000
    25  C          0.32453000       0.74267000       0.02383000
    26  C          0.67547000       0.24267000       0.97617000
    27  C          0.24363000       0.60688000       0.98657000
    28  C          0.75637000       0.10688000       0.01343000
    29  C          0.17643000       0.62757000       0.87047000
    30  C          0.82357000       0.12757000       0.12953000
    31  C          0.29403000       0.43938000       0.01194000
    32  C          0.70597000       0.93938000       0.98806000
    33  C          0.36363000       0.41677000       0.12563000
    34  C          0.63637000       0.91677000       0.87437000
    35  C          0.44533000       0.55107000       0.15793000
    36  C          0.55467000       0.05107000       0.84207000
    37  C          0.38933000       0.71567000       0.13553000
    38  C          0.61067000       0.21567000       0.86447000
    39  C          0.47413000       0.84068000       0.18604000
    40  C          0.52587000       0.34068000       0.81396000
    41  C          0.54414000       0.75268000       0.28314000
    42  C          0.45586000       0.25268000       0.71686000
    43  C          0.50793000       0.57347000       0.27593000
    44  C          0.49207000       0.07347000       0.72407000
    45  C          0.52134000       0.52819000       0.09944000
    46  C          0.47866000       0.02819000       0.90056000
    47  C          0.24364000       0.60941000       0.80186000
    48  C          0.75636000       0.10941000       0.19814000
    49  C          0.59823000       0.45748000       0.32893000
    50  C          0.40177000       0.95748000       0.67107000
    51  C          0.56695000       0.28138000       0.32474000
    52  C          0.43305000       0.78138000       0.67526000
    53  C          0.65733000       0.51138000       0.44103000
    54  C          0.34267000       0.01138000       0.55897000
    55  C          0.59171400       0.51969000       0.50974000
    56  C          0.40828600       0.01969000       0.49026000
    57  C          0.65494000       0.57681000       0.61774000
    58  C          0.34506000       0.07681000       0.38226000
    59  H          0.12230000       0.38970000       0.84260000
    60  H          0.87770000       0.88970000       0.15740000
    61  H          0.05930000       0.50160000       0.75770000
    62  H          0.94070000       0.00160000       0.24230000
    63  H          0.03730000       0.49860000       0.95960000
    64  H          0.96270000      -0.00140000       0.04040000
    65  H          0.95370000       0.43270000       0.85070000
    66  H          0.04630000       0.93270000       0.14930000
    67  H          0.91970000       0.70360000       0.77370000
    68  H          0.08030000       0.20360000       0.22630000
    69  H          0.06130000       0.81160000       0.97060000
    70  H          0.93870000       0.31160000       0.02940000
    71  H          0.00730000       0.92560000       0.87970000
    72  H         -0.00730000       0.42560000       0.12030000
    73  H          0.09130000       0.80960000       0.77560000
    74  H          0.90870000       0.30960000       0.22440000
    75  H          0.16630000       0.05160000       0.88670000
    76  H          0.83370000       0.55160000       0.11330000
    77  H          0.25130000       0.94470000       0.85270000
    78  H          0.74870000       0.44470000       0.14730000
    79  H          0.33330000      -0.00240000       0.02630000
    80  H          0.66670000       0.49760000       0.97370000
    81  H          0.36830000       0.74360000       0.98570000
    82  H          0.63170000       0.24360000       0.01430000
    83  H          0.19930000       0.62360000       0.02730000
    84  H          0.80070000       0.12360000       0.97270000
    85  H          0.33630000       0.41360000       0.97270000
    86  H          0.66370000       0.91360000       0.02730000
    87  H          0.24430000       0.35260000      -0.00430000
    88  H          0.75570000       0.85260000       0.00430000
    89  H          0.39930000       0.30060000       0.13330000
    90  H          0.60070000       0.80060000       0.86670000
    91  H          0.34130000       0.71450000       0.17930000
    92  H          0.65870000       0.21450000       0.82070000
    93  H          0.44430000       0.93370000       0.19930000
    94  H          0.55570000       0.43370000       0.80070000
    95  H          0.51130000       0.86660000       0.13930000
    96  H          0.48870000       0.36660000       0.86070000
    97  H          0.53730000       0.80060000       0.34240000
    98  H          0.46270000       0.30060000       0.65760000
    99  H          0.62030000       0.75960000       0.28930000
   100  H          0.37970000       0.25960000       0.71070000
   101  H          0.45830000       0.56050000       0.31330000
   102  H          0.54170000       0.06050000       0.68670000
   103  H          0.58230000       0.60760000       0.12730000
   104  H          0.41770000       0.10760000       0.87270000
   105  H          0.54830000       0.41470000       0.10930000
   106  H          0.45170000       0.91470000       0.89070000
   107  H          0.48830000       0.54960000       0.02140000
   108  H          0.51170000       0.04960000       0.97860000
   109  H          0.30440000       0.67970000       0.82260000
   110  H          0.69560000       0.17970000       0.17740000
   111  H          0.26540000       0.48870000       0.80260000
   112  H          0.73460000      -0.01130000       0.19740000
   113  H          0.20440000       0.62770000       0.73460000
   114  H          0.79560000       0.12770000       0.26540000
   115  H          0.64730000       0.46960000       0.29130000
   116  H          0.35270000       0.96960000       0.70870000
   117  H          0.51440000       0.26370000       0.35140000
   118  H          0.48560000       0.76370000       0.64860000
   119  H          0.53340000       0.24570000       0.25340000
   120  H          0.46660000       0.74570000       0.74660000
   121  H          0.62140000       0.20270000       0.36940000
   122  H          0.37860000       0.70270000       0.63060000
   123  H          0.71330000       0.42670000       0.47330000
   124  H          0.28670000       0.92670000       0.52670000
   125  H          0.68930000       0.62470000       0.43930000
   126  H          0.31070000       0.12470000       0.56070000
   127  H          0.56240000       0.40670000       0.51340000
   128  H          0.43760000       0.90670000       0.48660000
   129  H          0.53540000       0.59060000       0.48240000
   130  H          0.46460000       0.09060000       0.51760000
   131  H          0.83660000       0.77670000       0.87260000
   132  H          0.16340000       0.27670000       0.12740000
   133  H          0.31940000       0.37170000       0.23640000
   134  H          0.68060000       0.87170000       0.76360000
   135  H          0.72940000       0.48990000       0.75240000
   136  H          0.27060000      -0.01010000       0.24760000
   137  H          0.67750000       0.34680000       0.66250000
   138  H          0.32250000       0.84680000       0.33750000
   139  H          0.18840000       0.01160000       0.07240000
   140  H          0.81160000       0.51160000       0.92760000
   141  O          0.67643000       0.13817000       0.58703000
   142  O          0.32357000       0.63817000       0.41297000
   143  C          0.75885000       0.07299000       0.59715000
   144  C          0.24115000       0.57299000       0.40285000
   145  C          0.77625000       0.97441000       0.51365000
   146  C          0.22375000       0.47441000       0.48635000
   147  C          0.87366000       0.02661000       0.49405000
   148  C          0.12634000       0.52661000       0.50595000
   149  C          0.96605000       0.02321000       0.59105000
   150  C          0.03395000       0.52321000       0.40895000
   151  C          0.94594000       0.13311000       0.67024000
   152  C          0.05406000       0.63311000       0.32976000
   153  C          0.84974000       0.08759000       0.69284000
   154  C          0.15026000       0.58759000       0.30716000
   155  C          0.06466000       0.06810000       0.57146000
   156  C          0.93534000       0.56810000       0.42854000
   157  H          0.71890000      -0.01240000       0.45130000
   158  H          0.28110000       0.48760000       0.54870000
   159  H          0.78250000       0.86340000       0.53270000
   160  H          0.21750000       0.36340000       0.46730000
   161  H          0.86190000       0.13100000       0.46500000
   162  H          0.13810000       0.63100000       0.53500000
   163  H          0.88330000       0.95120000       0.44540000
   164  H          0.11670000       0.45120000       0.55460000
   165  H          0.97430000       0.91730000       0.61780000
   166  H          0.02570000       0.41730000       0.38220000
   167  H          0.00290000       0.12990000       0.73290000
   168  H         -0.00290000       0.62990000       0.26710000
   169  H          0.93730000       0.24350000       0.64550000
   170  H          0.06270000       0.74350000       0.35450000
   171  H          0.86110000      -0.01230000       0.72940000
   172  H          0.13890000       0.48770000       0.27060000
   173  H          0.83570000       0.16990000       0.73630000
   174  H          0.16430000       0.66990000       0.26370000
   175  H          0.05690000       0.17250000       0.53840000
   176  H          0.94310000       0.67250000       0.46160000
   177  H          0.08320000      -0.00980000       0.53360000
   178  H          0.91680000       0.49020000       0.46640000
   179  H          0.12010000       0.08110000       0.63820000
   180  H          0.87990000       0.58110000       0.36180000
