data_GOVRIW
_symmetry_space_group_name_H-M    'P1'
_symmetry_Int_Tables_number       1
loop_
_symmetry_equiv_pos_site_id
_symmetry_equiv_pos_as_xyz
1 x,y,z
_cell_length_a                   4.97867
_cell_length_b                   10.295914
_cell_length_c                   25.3943
_cell_angle_alpha                90.0
_cell_angle_beta                 90.0
_cell_angle_gamma                90.0
loop_
_atom_site_label
_atom_site_type_symbol
_atom_site_fract_x
_atom_site_fract_y
_atom_site_fract_z
     1  P          0.37590600       0.53961300       0.40450200
     2  P          0.12409400       0.46038700       0.90450200
     3  P          0.62409400       0.03961300       0.09549800
     4  P          0.87590600       0.96038700       0.59549800
     5  H          0.43150000       0.42220000       0.41009000
     6  H          0.06850000       0.57780000       0.91009000
     7  H          0.56850000       0.92220000       0.08991000
     8  H          0.93150000       0.07780000       0.58991000
     9  O          0.39632000       0.60258100       0.45794400
    10  O          0.10368000       0.39741900       0.95794400
    11  O          0.60368000       0.10258100       0.04205600
    12  O          0.89632000       0.89741900       0.54205600
    13  O          0.11562000       0.55381110       0.37550400
    14  O          0.38438000       0.44618890       0.87550400
    15  O          0.88438000       0.05381110       0.12449600
    16  O          0.61562000       0.94618890       0.62449600
    17  O          0.59632000       0.59071130       0.36531400
    18  O          0.90368000       0.40928870       0.86531400
    19  O          0.40368000       0.09071130       0.13468600
    20  O          0.09632000       0.90928870       0.63468600
    21  H          0.74160000       0.57720000       0.37261000
    22  H          0.75840000       0.42280000       0.87261000
    23  H          0.25840000       0.07720000       0.12739000
    24  H          0.24160000       0.92280000       0.62739000
    25  O          0.16362000       0.55496110       0.64219400
    26  O          0.33638000       0.44503890       0.14219400
    27  O          0.83638000       0.05496110       0.85780600
    28  O          0.66362000       0.94503890       0.35780600
    29  H          0.26960000       0.58120000       0.66061100
    30  H          0.23040000       0.41880000       0.16061100
    31  H          0.73040000       0.08120000       0.83938900
    32  H          0.76960000       0.91880000       0.33938900
    33  O          0.31872000       0.67072110       0.57337400
    34  O          0.18128000       0.32927890       0.07337400
    35  O          0.68128000       0.17072110       0.92662600
    36  O          0.81872000       0.82927890       0.42662600
    37  C          0.14862000       0.60520120       0.59479500
    38  C          0.35138000       0.39479880       0.09479500
    39  C          0.85138000       0.10520120       0.90520500
    40  C          0.64862000       0.89479880       0.40520500
    41  C          0.88187000       0.57620130       0.56884500
    42  C          0.61813000       0.42379870       0.06884500
    43  C          0.11813000       0.07620130       0.93115500
    44  C          0.38187000       0.92379870       0.43115500
    45  H          0.73821100       0.61957700       0.59001500
    46  H          0.76178900       0.38042300       0.09001500
    47  H          0.26178900       0.11957700       0.90998500
    48  H          0.23821100       0.88042300       0.40998500
    49  N          0.88348000       0.63652110       0.51576400
    50  N          0.61652000       0.36347890       0.01576400
    51  N          0.11652000       0.13652110       0.98423600
    52  N          0.38348000       0.86347890       0.48423600
    53  H          0.03101100       0.60928700       0.49770300
    54  H          0.46898900       0.39071300      -0.00229700
    55  H          0.96898900       0.10928700       0.00229700
    56  H          0.53101100       0.89071300       0.50229700
    57  H          0.88796600       0.72450200       0.51905200
    58  H          0.61203400       0.27549800       0.01905200
    59  H          0.11203400       0.22450200       0.98094800
    60  H          0.38796600       0.77549800       0.48094800
    61  H          0.73261800       0.61274500       0.49798800
    62  H          0.76738200       0.38725500      -0.00201200
    63  H          0.26738200       0.11274500       0.00201200
    64  H          0.23261800       0.88725500       0.50201200
    65  C          0.81207000       0.43260150       0.56495600
    66  C          0.68793000       0.56739850       0.06495600
    67  C          0.18793000       0.93260150       0.93504400
    68  C          0.31207000       0.06739850       0.43504400
    69  H          0.62799100       0.42380200       0.55065600
    70  H          0.87200900       0.57619800       0.05065600
    71  H          0.37200900       0.92380200       0.94934400
    72  H          0.12799100       0.07619800       0.44934400
    73  H          0.81297200       0.39453800       0.60075100
    74  H          0.68702800       0.60546200       0.10075100
    75  H          0.18702800       0.89453800       0.89924900
    76  H          0.31297200       0.10546200       0.39924900
    77  S          0.04108110       0.34169400       0.52372200
    78  S          0.45891890       0.65830600       0.02372200
    79  S          0.95891890       0.84169400       0.97627800
    80  S          0.54108110       0.15830600       0.47627800
    81  H          0.18170000       0.32630000       0.55171300
    82  H          0.31830000       0.67370000       0.05171300
    83  H          0.81830000       0.82630000       0.94828700
    84  H          0.68170000       0.17370000       0.44828700
    85  O          0.74402000       0.47421100       0.24171400
    86  O          0.75598000       0.52578900       0.74171400
    87  O          0.25598000       0.97421100       0.25828600
    88  O          0.24402000       0.02578900       0.75828600
    89  O         -0.00117000       0.33015120       0.19809500
    90  O          0.50117000       0.66984880       0.69809500
    91  O          0.00117000       0.83015120       0.30190500
    92  O          0.49883000       0.16984880       0.80190500
    93  C          0.80433000       0.36263120       0.22676500
    94  C          0.69567000       0.63736880       0.72676500
    95  C          0.19567000       0.86263120       0.27323500
    96  C          0.30433000       0.13736880       0.77323500
    97  C          0.62282000       0.25042120       0.24489400
    98  C          0.87718000       0.74957880       0.74489400
    99  C          0.37718000       0.75042120       0.25510600
   100  C          0.12282000       0.24957880       0.75510600
   101  H          0.44766900       0.25862200       0.22588900
   102  H          0.05233100       0.74137800       0.72588900
   103  H          0.55233100       0.75862200       0.27411100
   104  H          0.94766900       0.24137800       0.77411100
   105  N          0.74142000       0.12162110       0.23090400
   106  N          0.75858000       0.87837890       0.73090400
   107  N          0.25858000       0.62162110       0.26909600
   108  N          0.24142000       0.37837890       0.76909600
   109  H          0.78982500       0.12168700       0.19634500
   110  H          0.71017500       0.87831300       0.69634500
   111  H          0.21017500       0.62168700       0.30365500
   112  H          0.28982500       0.37831300       0.80365500
   113  H          0.61778300       0.05804500       0.23660500
   114  H          0.88221700       0.94195500       0.73660500
   115  H          0.38221700       0.55804500       0.26339500
   116  H          0.11778300       0.44195500       0.76339500
   117  H          0.88871300       0.10671200       0.25122300
   118  H          0.61128700       0.89328800       0.75122300
   119  H          0.11128700       0.60671200       0.24877700
   120  H          0.38871300       0.39328800       0.74877700
   121  C          0.56422000       0.25412140       0.30378500
   122  C          0.93578000       0.74587860       0.80378500
   123  C          0.43578000       0.75412140       0.19621500
   124  C          0.06422000       0.24587860       0.69621500
   125  H          0.44552700       0.18031100       0.31286400
   126  H          0.05447300       0.81968900       0.81286400
   127  H          0.55447300       0.68031100       0.18713600
   128  H          0.94552700       0.31968900       0.68713600
   129  H          0.46629800       0.33527600       0.31205700
   130  H          0.03370200       0.66472400       0.81205700
   131  H          0.53370200       0.83527600       0.18794300
   132  H          0.96629800       0.16472400       0.68794300
   133  S          0.86360800       0.24602400       0.34425200
   134  S          0.63639200       0.75397600       0.84425200
   135  S          0.13639200       0.74602400       0.15574800
   136  S          0.36360800       0.25397600       0.65574800
   137  H          0.93560000       0.35630000       0.34071100
   138  H          0.56440000       0.64370000       0.84071100
   139  H          0.06440000       0.85630000       0.15928900
   140  H          0.43560000       0.14370000       0.65928900
