data_GOWTER
_symmetry_space_group_name_H-M    'P1'
_symmetry_Int_Tables_number       1
loop_
_symmetry_equiv_pos_site_id
_symmetry_equiv_pos_as_xyz
1 x,y,z
_cell_length_a                   6.34701
_cell_length_b                   9.82901
_cell_length_c                   12.51701
_cell_angle_alpha                70.7101
_cell_angle_beta                 84.5401
_cell_angle_gamma                88.8701
loop_
_atom_site_label
_atom_site_type_symbol
_atom_site_fract_x
_atom_site_fract_y
_atom_site_fract_z
     1  S          0.21013700       0.63148400       0.23801300
     2  S          0.78986300       0.36851600       0.76198700
     3  O          0.19432000       0.75138150       0.27925110
     4  O          0.80568000       0.24861850       0.72074890
     5  O          0.41172000       0.57002000       0.22195110
     6  O          0.58828000       0.42998000       0.77804890
     7  O          0.72157000       0.03572000       0.58084140
     8  O          0.27843000       0.96428000       0.41915860
     9  O          0.46548000       0.18632000       0.56893140
    10  O          0.53452000       0.81368000       0.43106860
    11  N          0.10132000       0.68462000       0.11922120
    12  N          0.89868000       0.31538000       0.88077880
    13  H          0.01203400       0.74472400       0.11851700
    14  H         -0.01203400       0.25527600       0.88148300
    15  N          0.64797000       0.15692000       0.54601130
    16  N          0.35203000       0.84308000       0.45398870
    17  C          0.05102000       0.58792000       0.06136120
    18  C          0.94898000       0.41208000       0.93863880
    19  C          0.85387000       0.59722000       0.02044140
    20  C          0.14613000       0.40278000       0.97955860
    21  H          0.75337000       0.66352000       0.03458140
    22  H          0.24663000       0.33648000       0.96541860
    23  C          0.19743000       0.48992000       0.04101140
    24  C          0.80257000       0.51008000       0.95898860
    25  H          0.33243000       0.48272000       0.06921140
    26  H          0.66757000       0.51728000       0.93078860
    27  C          0.04593000       0.48992000       0.33148130
    28  C          0.95407000       0.51008000       0.66851870
    29  C          0.83507000       0.51912000       0.35612000
    30  C          0.16493000       0.48088000       0.64388000
    31  H          0.78117000       0.61332000       0.32432000
    32  H          0.21883000       0.38668000       0.67568000
    33  C          0.70577000       0.40932000       0.42742000
    34  C          0.29423000       0.59068000       0.57258000
    35  H          0.56087000       0.42622000       0.44512000
    36  H          0.43913000       0.57378000       0.55488000
    37  C          0.79007000       0.27452000       0.47254140
    38  C          0.20993000       0.72548000       0.52745860
    39  C         -0.00153000       0.24352000       0.44942000
    40  C          0.00153000       0.75648000       0.55058000
    41  H          0.05203000       0.14952000       0.48252000
    42  H          0.94797000       0.85048000       0.51748000
    43  C          0.12763000       0.35352000       0.37659150
    44  C          0.87237000       0.64648000       0.62340850
    45  H          0.27153000       0.33552000       0.35765150
    46  H          0.72847000       0.66448000       0.64234850
    47  O          0.23403000       0.11932000       0.89246150
    48  O          0.76597000       0.88068000       0.10753850
    49  C          0.27513000       0.01832000       0.85902150
    50  C          0.72487000       0.98168000       0.14097850
    51  C          0.48813000       0.94958000       0.85952000
    52  C          0.51187000       0.05042000       0.14048000
    53  H          0.54373000       0.92828000       0.93452000
    54  H          0.45627000       0.07172000       0.06548000
    55  H          0.59013000       0.01372000       0.80052000
    56  H          0.40987000       0.98628000       0.19948000
    57  C          0.45194000       0.81228000       0.83472000
    58  C          0.54806000       0.18772000       0.16528000
    59  H          0.42184000       0.73038000       0.90602000
    60  H          0.57816000       0.26962000       0.09398000
    61  H          0.57734000       0.78928000       0.79062000
    62  H          0.42266000       0.21072000       0.20938000
    63  C          0.26094000       0.84338000       0.76542000
    64  C          0.73906000       0.15662000       0.23458000
    65  H          0.30554000       0.89118000       0.68362000
    66  H          0.69446000       0.10882000       0.31638000
    67  H          0.18364000       0.75308000       0.77462000
    68  H          0.81636000       0.24692000       0.22538000
    69  C          0.12263000       0.94258000       0.81252000
    70  C          0.87737000       0.05742000       0.18748000
    71  H          0.04883000       0.01252000       0.75182000
    72  H          0.95117000       0.98748000       0.24818000
    73  H          0.01603000       0.88648000       0.87332000
    74  H         -0.01603000       0.11352000       0.12668000
