data_GOWTOB
_symmetry_space_group_name_H-M    'P1'
_symmetry_Int_Tables_number       1
loop_
_symmetry_equiv_pos_site_id
_symmetry_equiv_pos_as_xyz
1 x,y,z
_cell_length_a                   6.54001
_cell_length_b                   8.77501
_cell_length_c                   12.79101
_cell_angle_alpha                75.2201
_cell_angle_beta                 83.7001
_cell_angle_gamma                88.8101
loop_
_atom_site_label
_atom_site_type_symbol
_atom_site_fract_x
_atom_site_fract_y
_atom_site_fract_z
     1  S          0.22343700       0.63133600       0.23869400
     2  S          0.77656300       0.36866400       0.76130600
     3  O          0.23153000       0.76462000       0.28327120
     4  O          0.76847000       0.23538000       0.71672880
     5  O          0.40802000       0.54932000       0.21745120
     6  O          0.59198000       0.45068000       0.78254880
     7  O          0.68548000       0.03302000       0.56607130
     8  O          0.31452000       0.96698000       0.43392870
     9  O          0.45488000       0.21452000       0.55303120
    10  O          0.54512000       0.78548000       0.44696880
    11  N          0.11743000       0.69622000       0.12654120
    12  N          0.88257000       0.30378000       0.87345880
    13  H          0.04054200       0.76713300       0.13272200
    14  H          0.95945800       0.23286700       0.86727800
    15  N          0.62898000       0.16862000       0.53245130
    16  N          0.37102000       0.83138000       0.46754870
    17  C          0.05913000       0.59322000       0.06477130
    18  C          0.94087000       0.40678000       0.93522870
    19  C          0.86317000       0.60363000       0.03312000
    20  C          0.13683000       0.39637000       0.96688000
    21  H          0.76767000       0.67493000       0.05592000
    22  H          0.23233000       0.32507000       0.94408000
    23  C          0.19573000       0.48873000       0.03162000
    24  C          0.80427000       0.51127000       0.96838000
    25  H          0.33073000       0.48013000       0.05332000
    26  H          0.66927000       0.51987000       0.94668000
    27  C          0.04913000       0.49252000       0.32603140
    28  C          0.95087000       0.50748000       0.67396860
    29  C          0.84567000       0.53712000       0.34412000
    30  C          0.15433000       0.46288000       0.65588000
    31  H          0.80237000       0.64002000       0.30992000
    32  H          0.19763000       0.35998000       0.69008000
    33  C          0.70807000       0.43052000       0.41212150
    34  C          0.29193000       0.56948000       0.58787850
    35  H          0.56777000       0.45772000       0.42449150
    36  H          0.43223000       0.54228000       0.57550850
    37  C          0.77787000       0.28292000       0.46216140
    38  C          0.22213000       0.71708000       0.53783860
    39  C          0.97897000       0.23782000       0.44632000
    40  C          0.02103000       0.76218000       0.55368000
    41  H          0.02283000       0.13612000       0.48292000
    42  H          0.97717000       0.86388000       0.51708000
    43  C          0.11603000       0.34362000       0.37602000
    44  C          0.88397000       0.65638000       0.62398000
    45  H          0.25513000       0.31452000       0.36202000
    46  H          0.74487000       0.68548000       0.63798000
    47  O          0.15593000       0.06283000       0.84262000
    48  O          0.84407000       0.93717000       0.15738000
    49  C          0.33684000       0.02353000       0.89042000
    50  C          0.66316000       0.97647000       0.10958000
    51  H          0.30724000      -0.00493000       0.97062000
    52  H          0.69276000       0.00493000       0.02938000
    53  H          0.43314000       0.11453000       0.86872000
    54  H          0.56686000       0.88547000       0.13128000
    55  C          0.43124000       0.88687000       0.85362000
    56  C          0.56876000       0.11313000       0.14638000
    57  H          0.44754000       0.79647000       0.91672000
    58  H          0.55246000       0.20353000       0.08328000
    59  H          0.56784000       0.91607000       0.81232000
    60  H          0.43216000       0.08393000       0.18768000
    61  C          0.28425000       0.84607000       0.78212000
    62  C          0.71575000       0.15393000       0.21788000
    63  H          0.34935000       0.86417000       0.70632000
    64  H          0.65065000       0.13583000       0.29368000
    65  H          0.24055000       0.73427000       0.80882000
    66  H          0.75945000       0.26573000       0.19118000
    67  C          0.10935000       0.94986000       0.78803000
    68  C          0.89065000       0.05014000       0.21197000
    69  H          0.07705000       0.00334000       0.71373000
    70  H          0.92295000      -0.00334000       0.28627000
    71  H         -0.01295000       0.88746000       0.82723000
    72  H          0.01295000       0.11254000       0.17277000
