data_GOWTIV
_symmetry_space_group_name_H-M    'P1'
_symmetry_Int_Tables_number       1
loop_
_symmetry_equiv_pos_site_id
_symmetry_equiv_pos_as_xyz
1 x,y,z
_cell_length_a                   6.38601
_cell_length_b                   10.18301
_cell_length_c                   12.61401
_cell_angle_alpha                73.4701
_cell_angle_beta                 86.4301
_cell_angle_gamma                88.3901
loop_
_atom_site_label
_atom_site_type_symbol
_atom_site_fract_x
_atom_site_fract_y
_atom_site_fract_z
     1  S          0.21236600       0.61714400       0.24589300
     2  S          0.78763400       0.38285600       0.75410700
     3  O          0.20342000       0.72957120       0.29303900
     4  O          0.79658000       0.27042880       0.70696100
     5  O          0.40992000       0.55642120       0.22626900
     6  O          0.59008000       0.44357880       0.77373100
     7  O          0.75307000       0.05481130       0.56562120
     8  O          0.24693000       0.94518870       0.43437880
     9  O          0.49088000       0.19562000       0.54712120
    10  O          0.50912000       0.80438000       0.45287880
    11  N          0.09512000       0.67114130       0.13066100
    12  N          0.90488000       0.32885870       0.86933900
    13  H          0.00043000       0.72992000       0.13301500
    14  H         -0.00043000       0.27008000       0.86698500
    15  N          0.67477000       0.16852000       0.53036110
    16  N          0.32523000       0.83148000       0.46963890
    17  C          0.04782000       0.58103140       0.06659110
    18  C          0.95218000       0.41896860       0.93340890
    19  C          0.84438000       0.57632000       0.03699130
    20  C          0.15562000       0.42368000       0.96300870
    21  H          0.73718000       0.62832000       0.06257130
    22  H          0.26282000       0.37168000       0.93742870
    23  C          0.20392000       0.50422000       0.02998130
    24  C          0.79608000       0.49578000       0.97001870
    25  H          0.34382000       0.50672000       0.05079130
    26  H          0.65618000       0.49328000       0.94920870
    27  C          0.05472000       0.48415150       0.33272120
    28  C          0.94528000       0.51584850       0.66727880
    29  C          0.84767000       0.51352000       0.35867130
    30  C          0.15233000       0.48648000       0.64132870
    31  H          0.79237000       0.60372000       0.33161130
    32  H          0.20763000       0.39628000       0.66838870
    33  C          0.72327000       0.40962000       0.42446130
    34  C          0.27673000       0.59038000       0.57553870
    35  H          0.58047000       0.42672000       0.44274130
    36  H          0.41953000       0.57328000       0.55725870
    37  C          0.81007000       0.28032000       0.46323120
    38  C          0.18993000       0.71968000       0.53676880
    39  C          0.01583000       0.24972000       0.44012130
    40  C         -0.01583000       0.75028000       0.55987870
    41  H          0.07153000       0.16002000       0.46953130
    42  H          0.92847000       0.83998000       0.53046870
    43  C          0.13953000       0.35372000       0.37251130
    44  C          0.86047000       0.64628000       0.62748870
    45  H          0.28163000       0.33582000       0.35355130
    46  H          0.71837000       0.66418000       0.64644870
    47  O          0.25402000       0.14663140       0.87981130
    48  O          0.74598000       0.85336860       0.12018870
    49  C          0.29953000       0.05712000       0.83588150
    50  C          0.70047000       0.94288000       0.16411850
    51  C          0.51233000      -0.00812000       0.84283150
    52  C          0.48767000       0.00812000       0.15716850
    53  H          0.58523000       0.01362000       0.90269150
    54  H          0.41477000       0.98638000       0.09730850
    55  H          0.59473000       0.03152000       0.77233150
    56  H          0.40527000       0.96848000       0.22766850
    57  C          0.50603000       0.83668000       0.86532000
    58  C          0.49397000       0.16332000       0.13468000
    59  H          0.64993000       0.80108000       0.85642000
    60  H          0.35007000       0.19892000       0.14358000
    61  H          0.45283000       0.79458000       0.94262000
    62  H          0.54717000       0.20542000       0.05738000
    63  C          0.36624000       0.79648000       0.78692000
    64  C          0.63376000       0.20352000       0.21308000
    65  H          0.42534000       0.83208000       0.70982000
    66  H          0.57466000       0.16792000       0.29018000
    67  H          0.36094000       0.69538000       0.80502000
    68  H          0.63906000       0.30462000       0.19498000
    69  C          0.14773000       0.85338000       0.79622000
    70  C          0.85227000       0.14662000       0.20378000
    71  H          0.08693000       0.81468000       0.87262000
    72  H          0.91307000       0.18532000       0.12738000
    73  H          0.05833000       0.82558000       0.74512000
    74  H          0.94167000       0.17442000       0.25488000
    75  C          0.14843000       0.00962000       0.76822000
    76  C          0.85157000      -0.00962000       0.23178000
    77  H          0.18823000       0.04882000       0.68852000
    78  H          0.81177000       0.95118000       0.31148000
    79  H          0.00553000       0.04322000       0.78262000
    80  H         -0.00553000       0.95678000       0.21738000
