data_GOWVAP
_symmetry_space_group_name_H-M    'P1'
_symmetry_Int_Tables_number       1
loop_
_symmetry_equiv_pos_site_id
_symmetry_equiv_pos_as_xyz
1 x,y,z
_cell_length_a                   6.60501
_cell_length_b                   12.22701
_cell_length_c                   13.27701
_cell_angle_alpha                110.9801
_cell_angle_beta                 104.1001
_cell_angle_gamma                90.7801
loop_
_atom_site_label
_atom_site_type_symbol
_atom_site_fract_x
_atom_site_fract_y
_atom_site_fract_z
     1  S          0.28199900       0.16197500       0.87240400
     2  S          0.71800100       0.83802500       0.12759600
     3  N          0.35723000       0.27002000       0.84228140
     4  N          0.64277000       0.72998000       0.15771860
     5  H          0.41073600       0.24672000       0.78981900
     6  H          0.58926400       0.75328000       0.21018100
     7  N         -0.01187000       0.16182000       0.25042000
     8  N          0.01187000       0.83818000       0.74958000
     9  O          0.27143000       0.05800130       0.77581110
    10  O          0.72857000       0.94199870       0.22418890
    11  O          0.10062000       0.18707140       0.91344120
    12  O          0.89938000       0.81292860       0.08655880
    13  O          0.97173000       0.20952000       0.34579130
    14  O          0.02827000       0.79048000       0.65420870
    15  O          0.14233000       0.11612000       0.22703150
    16  O          0.85767000       0.88388000       0.77296850
    17  C          0.42793000       0.38572000       0.92362000
    18  C          0.57207000       0.61428000       0.07638000
    19  C          0.60074000       0.44642000       0.91932000
    20  C          0.39926000       0.55358000       0.08068000
    21  H          0.67134000       0.40962000       0.86352000
    22  H          0.32866000       0.59038000       0.13648000
    23  C          0.32654000       0.43982000       0.00522000
    24  C          0.67346000       0.56018000      -0.00522000
    25  H          0.20724000       0.39912000       0.00942000
    26  H          0.79276000       0.60088000      -0.00942000
    27  C          0.48753000       0.15832000       0.98553150
    28  C          0.51247000       0.84168000       0.01446850
    29  C          0.67374000       0.11992000       0.96442000
    30  C          0.32626000       0.88008000       0.03558000
    31  H          0.68894000       0.09322000       0.89042000
    32  H          0.31106000       0.90678000       0.10958000
    33  C          0.83774000       0.12072000       0.05182000
    34  C          0.16226000       0.87928000       0.94818000
    35  H          0.96774000       0.09532000       0.03912000
    36  H          0.03226000       0.90468000       0.96088000
    37  C          0.80943000       0.15892000       0.15762000
    38  C          0.19057000       0.84108000       0.84238000
    39  C          0.62514000       0.19662000       0.18032000
    40  C          0.37486000       0.80338000       0.81968000
    41  H          0.61054000       0.22182000       0.25442000
    42  H          0.38946000       0.77818000       0.74558000
    43  C          0.46044000       0.19712000       0.09272000
    44  C          0.53956000       0.80288000       0.90728000
    45  H          0.33134000       0.22372000       0.10582000
    46  H          0.66866000       0.77628000       0.89418000
    47  N          0.54103000       0.20522000       0.65983150
    48  N          0.45897000       0.79478000       0.34016850
    49  C          0.43894000       0.18402000       0.55362000
    50  C          0.56106000       0.81598000       0.44638000
    51  H          0.29884000       0.20342000       0.53792000
    52  H          0.70116000       0.79658000       0.46208000
    53  C          0.52675000       0.13562000       0.46612000
    54  C          0.47325000       0.86438000       0.53388000
    55  H          0.44905000       0.12212000       0.39162000
    56  H          0.55095000       0.87788000       0.60838000
    57  C          0.72655000       0.10722000       0.48762000
    58  C          0.27345000       0.89278000       0.51238000
    59  H          0.79025000       0.07312000       0.42832000
    60  H          0.20975000       0.92688000       0.57168000
    61  C          0.83464000       0.12852000       0.59562000
    62  C          0.16536000       0.87148000       0.40438000
    63  H         -0.02496000       0.11012000       0.61312000
    64  H          0.02496000       0.88988000       0.38688000
    65  C          0.73564000       0.17692000       0.67832000
    66  C          0.26436000       0.82308000       0.32168000
    67  H          0.81124000       0.19112000       0.75332000
    68  H          0.18876000       0.80888000       0.24668000
    69  N          0.86174000       0.59093000       0.77683000
    70  N          0.13826000       0.40907000       0.22317000
    71  C          0.72933000       0.54464000       0.67914000
    72  C          0.27067000       0.45536000       0.32086000
    73  H          0.59293000       0.56984000       0.67024000
    74  H          0.40707000       0.43016000       0.32976000
    75  C          0.77172000       0.46294000       0.58903000
    76  C          0.22828000       0.53706000       0.41097000
    77  H          0.66852000       0.43254000       0.51913000
    78  H          0.33148000       0.56746000       0.48087000
    79  C          0.96341000       0.42563000       0.60063000
    80  C          0.03659000       0.57437000       0.39937000
    81  H          0.00039000       0.36913000       0.53893000
    82  H         -0.00039000       0.63087000       0.46107000
    83  C          0.10307000       0.47123000       0.70313000
    84  C          0.89693000       0.52877000       0.29687000
    85  H          0.24017000       0.44723000       0.71533000
    86  H          0.75983000       0.55277000       0.28467000
    87  C          0.04227000       0.55113000       0.78683000
    88  C          0.95773000       0.44887000       0.21317000
    89  H          0.13947000       0.58053000       0.85883000
    90  H          0.86053000       0.41947000       0.14117000
