data_GRISFL49
_symmetry_space_group_name_H-M    'P1'
_symmetry_Int_Tables_number       1
loop_
_symmetry_equiv_pos_site_id
_symmetry_equiv_pos_as_xyz
1 x,y,z
_cell_length_a                   11.869
_cell_length_b                   8.438
_cell_length_c                   25.53
_cell_angle_alpha                90.0
_cell_angle_beta                 90.2413
_cell_angle_gamma                90.0
loop_
_atom_site_label
_atom_site_type_symbol
_atom_site_fract_x
_atom_site_fract_y
_atom_site_fract_z
     1  Cl         0.32726000       0.89791000       0.81874000
     2  Cl         0.67274000       0.39791000       0.18126000
     3  C          0.63931400       0.04261800       0.86609000
     4  C          0.36068600       0.54261800       0.13391000
     5  H          0.71280900       0.03151700       0.85391100
     6  H          0.28719100       0.53151700       0.14608900
     7  C          0.41591300       0.08561800       0.89899000
     8  C          0.58408700       0.58561800       0.10101000
     9  C          0.55141300       0.96568300       0.83908000
    10  C          0.44858700       0.46568300       0.16092000
    11  O          0.31101100       0.11481500       0.91657000
    12  O          0.68898900       0.61481500       0.08343000
    13  C          0.50331200       0.15441600       0.92489000
    14  C          0.49668800       0.65441600       0.07511000
    15  C          0.61871200       0.13811600       0.91178000
    16  C          0.38128800       0.63811600       0.08822000
    17  C          0.44781600       0.24420000       0.96671100
    18  C          0.55218400       0.74420000       0.03328900
    19  O          0.00031500       0.24881900       0.02591000
    20  O         -0.00031500       0.74881900       0.97409000
    21  C          0.30971600       0.17520000       0.06601000
    22  C          0.69028400       0.67520000       0.93399000
    23  H          0.38943300       0.19161200       0.06963800
    24  H          0.61056700       0.69161200       0.93036200
    25  H          0.28402900       0.10574300       0.09333400
    26  H          0.71597100       0.60574300       0.90666600
    27  H          0.27127700       0.27493100       0.06847000
    28  H          0.72872300       0.77493100       0.93153000
    29  O          0.56731300       0.87458200       0.79519000
    30  O          0.43268700       0.37458200       0.20481000
    31  C          0.28411400       0.09720000       0.01091000
    32  C          0.71588600       0.59720000       0.98909000
    33  H          0.32230900      -0.00533500       0.00848300
    34  H          0.67769100       0.49466500       0.99151700
    35  C          0.08911500       0.23120000       0.00731000
    36  C          0.91088500       0.73120000       0.99269000
    37  O          0.69521200       0.20541700       0.94248000
    38  O          0.30478800       0.70541700       0.05752000
    39  O          0.49491400       0.33001800       0.00299000
    40  O          0.50508600       0.83001800      -0.00299000
    41  C          0.43661400      -0.01081900       0.85489000
    42  C          0.56338600       0.48918100       0.14511000
    43  C          0.25291600       0.35520000       0.96141000
    44  C          0.74708400       0.85520000       0.03859000
    45  C          0.15541400       0.07320000       0.00661000
    46  C          0.84458600       0.57320000       0.99339000
    47  H          0.13038900       0.00751500       0.03553300
    48  H          0.86961100       0.50751500       0.96446700
    49  H          0.13848300       0.01729900       0.97423400
    50  H          0.86151700       0.51729900       0.02576600
    51  C          0.67881600       0.82780000       0.78431100
    52  C          0.32118400       0.32780000       0.21568900
    53  H          0.72277700       0.92020600       0.77565200
    54  H          0.27722300       0.42020600       0.22434800
    55  H          0.67910000       0.75574000       0.75528600
    56  H          0.32090000       0.25574000       0.24471400
    57  H          0.71064900       0.77747300       0.81466100
    58  H          0.28935100       0.27747300       0.18533900
    59  C          0.80721500       0.18220000       0.92921100
    60  C          0.19278500       0.68220000       0.07078900
    61  H          0.85474900       0.23772800       0.95346500
    62  H          0.14525100       0.73772800       0.04653500
    63  H          0.82016000       0.22063600       0.89428500
    64  H          0.17984000       0.72063600       0.10571500
    65  H          0.82423600       0.07049600       0.93054800
    66  H          0.17576400       0.57049600       0.06945200
    67  C          0.14341500       0.36120000       0.97611000
    68  C          0.85658500       0.86120000       0.02389000
    69  H          0.10030400       0.44811000       0.96650600
    70  H          0.89969600       0.94811000       0.03349400
    71  C          0.32371400       0.20820000       0.96481000
    72  C          0.67628600       0.70820000       0.03519000
    73  O          0.30241500       0.46220000       0.93361000
    74  O          0.69758500       0.96220000       0.06639000
    75  C          0.25330000       0.61830000       0.92531800
    76  C          0.74670000       0.11830000       0.07468200
    77  H          0.22027900       0.65520300       0.95739900
    78  H          0.77972100       0.15520300       0.04260100
    79  H          0.19558800       0.61136700       0.89867400
    80  H          0.80441200       0.11136700       0.10132600
    81  H          0.31049100       0.69084600       0.91417900
    82  H          0.68950900       0.19084600       0.08582100
    83  Cl         0.28138000       0.53121100       0.34536000
    84  Cl         0.71862000       0.03121100       0.65464000
    85  O          0.39711200       0.96971600       0.17248000
    86  O          0.60288800       0.46971600       0.82752000
    87  C          0.43481300       0.69781800       0.28439000
    88  C          0.56518700       0.19781800       0.71561000
    89  C          0.37861300       0.87551700       0.21578000
    90  C          0.62138700       0.37551700       0.78422000
    91  O          0.13771200      -0.00878500       0.16858000
    92  O          0.86228800       0.49121500       0.83142000
    93  C          0.26441200       0.84851600       0.22708000
    94  C          0.73558800       0.34851600       0.77292000
    95  C          0.46481300       0.79861600       0.24379000
    96  C          0.53518700       0.29861600       0.75621000
    97  H          0.54014800       0.81485700       0.23530100
    98  H          0.45985200       0.31485700       0.76469900
    99  O          0.50841200       0.61921700       0.31588000
   100  O          0.49158800       0.11921700       0.68412000
   101  C          0.51031200       0.00801700       0.16098000
   102  C          0.48968800       0.50801700       0.83902000
   103  H          0.54100100       0.07211300       0.18857600
   104  H          0.45899900       0.57211300       0.81142400
   105  H          0.51329000       0.06561300       0.12840200
   106  H          0.48671000       0.56561300       0.87159800
   107  H          0.55350900       0.91216100       0.15776200
   108  H          0.44649100       0.41216100       0.84223800
   109  O          0.13001300       0.73301700       0.27939000
   110  O          0.86998700       0.23301700       0.72061000
   111  C          0.23971500       0.74720000       0.26851000
   112  C          0.76028500       0.24720000       0.73149000
   113  C          0.32021500       0.65920000       0.29741000
   114  C          0.67978500       0.15920000       0.70259000
   115  C          0.62871500       0.65420000       0.30951200
   116  C          0.37128500       0.15420000       0.69048800
   117  H          0.64266600       0.76299300       0.31792900
   118  H          0.35733400       0.26299300       0.68207100
   119  H          0.65037400       0.63382100       0.27382900
   120  H          0.34962600       0.13382100       0.72617100
   121  H          0.67185900       0.58706300       0.33257400
   122  H          0.32814100       0.08706300       0.66742600
   123  C          0.16231300       0.90131900       0.20669000
   124  C          0.83768700       0.40131900       0.79331000
   125  O          0.05871400       0.58420000       0.19121000
   126  O          0.94128600       0.08420000       0.80879000
   127  O          0.72701600       0.89820000       0.20771100
   128  O          0.27298400       0.39820000       0.79228900
   129  C          0.06741500       0.82921900       0.23781000
   130  C          0.93258500       0.32921900       0.76219000
   131  C         -0.00528300       0.71520000       0.20591100
   132  C          0.00528300       0.21520000       0.79408900
   133  C         -0.00118600       0.95520000       0.27021000
   134  C          0.00118600       0.45520000       0.72979000
   135  H          0.96426700       0.90231900       0.30041400
   136  H          0.03573300       0.40231900       0.69958600
   137  C         -0.00008100       0.47130000       0.15521300
   138  C          0.00008100       0.97130000       0.84478700
   139  H          0.93272400       0.43199200       0.17180700
   140  H          0.06727600       0.93199200       0.82819300
   141  H          0.04904400       0.38319000       0.14767500
   142  H          0.95095600       0.88319000       0.85232500
   143  H          0.98018000       0.52378600       0.12316300
   144  H          0.01982000       0.02378600       0.87683700
   145  C          0.82991500       0.88520000       0.21281000
   146  C          0.17008500       0.38520000       0.78719000
   147  C          0.88751500       0.74120000       0.19801000
   148  C          0.11248500       0.24120000       0.80199000
   149  H          0.84542300       0.66213200       0.18165300
   150  H          0.15457700       0.16213200       0.81834700
   151  C          0.06941700       0.09320000       0.28961200
   152  C          0.93058300       0.59320000       0.71038800
   153  H          0.11428400       0.13361300       0.26133300
   154  H          0.88571600       0.63361300       0.73866700
   155  H          0.11796100       0.05822100       0.31755700
   156  H          0.88203900       0.55822100       0.68244300
   157  H          0.02073900       0.17572500       0.30232600
   158  H          0.97926100       0.67572500       0.69767400
   159  C          0.90541700       0.01820000       0.23431100
   160  C          0.09458300       0.51820000       0.76568900
   161  H          0.93927700       0.07423900       0.20510600
   162  H          0.06072300       0.57423900       0.79489400
   163  H          0.85951000       0.09282100       0.25364000
   164  H          0.14049000       0.59282100       0.74636000
   165  Cl         0.83065000       0.60068000       0.43194000
   166  Cl         0.16935000       0.10068000       0.56806000
   167  O          0.93771000       0.91918700       0.41687000
   168  O          0.06229000       0.41918700       0.58313000
   169  O          0.58671100       0.19251500       0.50127000
   170  O          0.41328900       0.69251500       0.49873000
   171  O          0.67049000       0.32571300       0.41846000
   172  O          0.32951000       0.82571300       0.58154000
   173  O          0.67699000       0.90648700       0.40386000
   174  O          0.32301000       0.40648700       0.59614000
   175  C          0.69921000       0.04741400       0.40887000
   176  C          0.30079000       0.54741400       0.59113000
   177  C          0.78291100       0.29131500       0.42148000
   178  C          0.21708900       0.79131500       0.57852000
   179  C          0.53221200       0.15891600       0.45768000
   180  C          0.46778800       0.65891600       0.54232000
   181  O          0.05391000       0.45991400       0.44627000
   182  O          0.94609000       0.95991400       0.55373000
   183  C          0.61271100       0.18221500       0.41217000
   184  C          0.38728900       0.68221500       0.58783000
   185  C          0.16891200       0.41141800       0.45929000
   186  C          0.83108800       0.91141800       0.54071000
   187  H          0.20253900       0.36160100       0.42920700
   188  H          0.79746100       0.86160100       0.57079300
   189  H          0.16735600       0.33788500       0.48792300
   190  H          0.83264400       0.83788500       0.51207700
   191  H          0.21228200       0.50299600       0.46893000
   192  H          0.78771800       0.00299600       0.53107000
   193  C          0.04731200       0.86098400       0.42099000
   194  C          0.95268800       0.36098400       0.57901000
   195  H          0.08013000       0.89560600       0.45348000
   196  H          0.91987000       0.39560600       0.54652000
   197  H          0.09149000       0.90004400       0.39222200
   198  H          0.90851000       0.40004400       0.60777800
   199  H          0.04584800       0.74714500       0.41997300
   200  H          0.95415200       0.24714500       0.58002700
   201  C          0.97821200       0.34921500       0.43628000
   202  C          0.02178800       0.84921500       0.56372000
   203  C          0.53121600       0.17120000       0.55271100
   204  C          0.46878400       0.67120000       0.44728900
   205  H          0.47620400       0.25266300       0.55773400
   206  H          0.52379600       0.75266300       0.44226600
   207  H          0.58679400       0.17598500       0.58013300
   208  H          0.41320600       0.67598500       0.41986700
   209  H          0.49474100       0.06897600       0.55357000
   210  H          0.50525900       0.56897600       0.44643000
   211  C          0.54421100       0.20241500       0.35727000
   212  C          0.45578900       0.70241500       0.64273000
   213  H          0.50809300       0.30690700       0.35685900
   214  H          0.49190700       0.80690700       0.64314100
   215  C          0.86971300       0.40711800       0.43059000
   216  C          0.13028700       0.90711800       0.56941000
   217  C          0.92091100       0.07071500       0.42478000
   218  C          0.07908900       0.57071500       0.57522000
   219  C          0.37081300       0.07781700       0.40459000
   220  C          0.62918700       0.57781700       0.59541000
   221  C          0.80491100       0.12871500       0.41898000
   222  C          0.19508900       0.62871500       0.58102000
   223  C          0.00371100       0.18221500       0.43238000
   224  C         -0.00371100       0.68221500       0.56762000
   225  H          0.07838100       0.14932700       0.43503300
   226  H          0.92161900       0.64932700       0.56496700
   227  C          0.27211100       0.05811400       0.39887000
   228  C          0.72788900       0.55811400       0.60113000
   229  H          0.19500700       0.04263600       0.39433800
   230  H          0.80499300       0.54263600       0.60566200
   231  C          0.62011600       0.19020000       0.30971100
   232  C          0.37988400       0.69020000       0.69028900
   233  H          0.57583500       0.20186600       0.27833200
   234  H          0.42416500       0.70186600       0.72166800
   235  H          0.65595200       0.08745200       0.30950300
   236  H          0.34404800       0.58745200       0.69049700
   237  H          0.67645800       0.27109700       0.31119600
   238  H          0.32354200       0.77109700       0.68880400
   239  C          0.42471200       0.11341600       0.45328000
   240  C          0.57528800       0.61341600       0.54672000
   241  H          0.38242500       0.10434700       0.48372100
   242  H          0.61757500       0.60434700       0.51627900
   243  C          0.45021300       0.07211700       0.35409000
   244  C          0.54978700       0.57211700       0.64591000
   245  H          0.48495600       0.96822400       0.35148500
   246  H          0.51504400       0.46822400       0.64851500
   247  H          0.40492400       0.08862600       0.32266800
   248  H          0.59507600       0.58862600       0.67733200
