data_GUCCUD
_symmetry_space_group_name_H-M    'P1'
_symmetry_Int_Tables_number       1
loop_
_symmetry_equiv_pos_site_id
_symmetry_equiv_pos_as_xyz
1 x,y,z
_cell_length_a                   9.9232
_cell_length_b                   20.3994
_cell_length_c                   10.3642
_cell_angle_alpha                90.0
_cell_angle_beta                 97.153
_cell_angle_gamma                90.0
loop_
_atom_site_label
_atom_site_type_symbol
_atom_site_fract_x
_atom_site_fract_y
_atom_site_fract_z
     1  I          0.37814300       0.56727515       0.95223300
     2  I          0.62185700       0.06727515       0.04776700
     3  I          0.62185700       0.43272485       0.04776700
     4  I          0.37814300       0.93272485       0.95223300
     5  O          0.35734000       0.65530180       0.92763000
     6  O          0.64266000       0.15530180       0.07237000
     7  O          0.64266000       0.34469820       0.07237000
     8  O          0.35734000       0.84469820       0.92763000
     9  O          0.29344000       0.56095190       0.09623000
    10  O          0.70656000       0.06095190       0.90377000
    11  O          0.70656000       0.43904810       0.90377000
    12  O          0.29344000       0.93904810       0.09623000
    13  O          0.55313000       0.56608180       0.02733000
    14  O          0.44687000       0.06608180       0.97267000
    15  O          0.44687000       0.43391820       0.97267000
    16  O          0.55313000       0.93391820       0.02733000
    17  N          0.02524000       0.71752000       0.93574000
    18  N          0.97476000       0.21752000       0.06426000
    19  N          0.97476000       0.28248000       0.06426000
    20  N          0.02524000       0.78248000       0.93574000
    21  H          0.02320000       0.69320000       0.00330000
    22  H          0.97680000       0.19320000      -0.00330000
    23  H          0.97680000       0.30680000      -0.00330000
    24  H          0.02320000       0.80680000       0.00330000
    25  N          0.02424000       0.71712000       0.38814000
    26  N          0.97576000       0.21712000       0.61186000
    27  N          0.97576000       0.28288000       0.61186000
    28  N          0.02424000       0.78288000       0.38814000
    29  H          0.02230000       0.69270000       0.32020000
    30  H          0.97770000       0.19270000       0.67980000
    31  H          0.97770000       0.30730000       0.67980000
    32  H          0.02230000       0.80730000       0.32020000
    33  C          0.02875000       0.69543000       0.81444000
    34  C          0.97125000       0.19543000       0.18556000
    35  C          0.97125000       0.30457000       0.18556000
    36  C          0.02875000       0.80457000       0.81444000
    37  H          0.03070000       0.65180000       0.78890000
    38  H          0.96930000       0.15180000       0.21110000
    39  H          0.96930000       0.34820000       0.21110000
    40  H          0.03070000       0.84820000       0.78890000
    41  C          0.02877000       0.75000000       0.73386000
    42  C          0.97123000       0.25000000       0.26614000
    43  C          0.02886000       0.75000000       0.59226000
    44  C          0.97114000       0.25000000       0.40774000
    45  C          0.02775000       0.69573000       0.50974000
    46  C          0.97225000       0.19573000       0.49026000
    47  C          0.97225000       0.30427000       0.49026000
    48  C          0.02775000       0.80427000       0.50974000
    49  H          0.02920000       0.65200000       0.53550000
    50  H          0.97080000       0.15200000       0.46450000
    51  H          0.97080000       0.34800000       0.46450000
    52  H          0.02920000       0.84800000       0.53550000
    53  N          0.70106000       0.71742000       0.61114000
    54  N          0.29894000       0.21742000       0.38886000
    55  N          0.29894000       0.28258000       0.38886000
    56  N          0.70106000       0.78258000       0.61114000
    57  H          0.70390000       0.69290000       0.67900000
    58  H          0.29610000       0.19290000       0.32100000
    59  H          0.29610000       0.30710000       0.32100000
    60  H          0.70390000       0.80710000       0.67900000
    61  N          0.68435000       0.71762000       0.06314000
    62  N          0.31565000       0.21762000       0.93686000
    63  N          0.31565000       0.28238000       0.93686000
    64  N          0.68435000       0.78238000       0.06314000
    65  H          0.68300000       0.69320000      -0.00480000
    66  H          0.31700000       0.19320000       0.00480000
    67  H          0.31700000       0.30680000       0.00480000
    68  H          0.68300000       0.80680000      -0.00480000
    69  C          0.69615000       0.69593000       0.48904000
    70  C          0.30385000       0.19593000       0.51096000
    71  C          0.30385000       0.30407000       0.51096000
    72  C          0.69615000       0.80407000       0.48904000
    73  H          0.69550000       0.65230000       0.46290000
    74  H          0.30450000       0.15230000       0.53710000
    75  H          0.30450000       0.34770000       0.53710000
    76  H          0.69550000       0.84770000       0.46290000
    77  C          0.69203000       0.75000000       0.40806000
    78  C          0.30797000       0.25000000       0.59194000
    79  C          0.68883000       0.75000000       0.26676000
    80  C          0.31117000       0.25000000       0.73324000
    81  C          0.68684000       0.69603000       0.18414000
    82  C          0.31316000       0.19603000       0.81586000
    83  C          0.31316000       0.30397000       0.81586000
    84  C          0.68684000       0.80397000       0.18414000
    85  H          0.68730000       0.65220000       0.20940000
    86  H          0.31270000       0.15220000       0.79060000
    87  H          0.31270000       0.34780000       0.79060000
    88  H          0.68730000       0.84780000       0.20940000
    89  N          0.37604000       0.71732000       0.70414000
    90  N          0.62396000       0.21732000       0.29586000
    91  N          0.62396000       0.28268000       0.29586000
    92  N          0.37604000       0.78268000       0.70414000
    93  H          0.37960000       0.69290000       0.77210000
    94  H          0.62040000       0.19290000       0.22790000
    95  H          0.62040000       0.30710000       0.22790000
    96  H          0.37960000       0.80710000       0.77210000
    97  N          0.34044000       0.71732000       0.15374000
    98  N          0.65956000       0.21732000       0.84626000
    99  N          0.65956000       0.28268000       0.84626000
   100  N          0.34044000       0.78268000       0.15374000
   101  H          0.33640000       0.69300000       0.08550000
   102  H          0.66360000       0.19300000       0.91450000
   103  H          0.66360000       0.30700000       0.91450000
   104  H          0.33640000       0.80700000       0.08550000
   105  C          0.36945000       0.69573000       0.58184000
   106  C          0.63055000       0.19573000       0.41816000
   107  C          0.63055000       0.30427000       0.41816000
   108  C          0.36945000       0.80427000       0.58184000
   109  H          0.36890000       0.65210000       0.55590000
   110  H          0.63110000       0.15210000       0.44410000
   111  H          0.63110000       0.34790000       0.44410000
   112  H          0.36890000       0.84790000       0.55590000
   113  C          0.36347000       0.75000000       0.49986000
   114  C          0.63653000       0.25000000       0.50014000
   115  C          0.35307000       0.75000000       0.35716000
   116  C          0.64693000       0.25000000       0.64284000
   117  C          0.34765000       0.69553000       0.27524000
   118  C          0.65235000       0.19553000       0.72476000
   119  C          0.65235000       0.30447000       0.72476000
   120  C          0.34765000       0.80447000       0.27524000
   121  H          0.34890000       0.65180000       0.30100000
   122  H          0.65110000       0.15180000       0.69900000
   123  H          0.65110000       0.34820000       0.69900000
   124  H          0.34890000       0.84820000       0.30100000
   125  I          0.00756300       0.56180315       0.13234300
   126  I         -0.00756300       0.06180315       0.86765700
   127  I         -0.00756300       0.43819685       0.86765700
   128  I          0.00756300       0.93819685       0.13234300
   129  O          0.01064000       0.65013180       0.16233000
   130  O         -0.01064000       0.15013180       0.83767000
   131  O         -0.01064000       0.34986820       0.83767000
   132  O          0.01064000       0.84986820       0.16233000
   133  O          0.83986000       0.54092000       0.16923000
   134  O          0.16014000       0.04092000       0.83077000
   135  O          0.16014000       0.45908000       0.83077000
   136  O          0.83986000       0.95908000       0.16923000
   137  O          0.97726000       0.56717180       0.95667000
   138  O          0.02274000       0.06717180       0.04333000
   139  O          0.02274000       0.43282820       0.04333000
   140  O          0.97726000       0.93282820       0.95667000
   141  I          0.70329700       0.57226915       0.82385300
   142  I          0.29670300       0.07226915       0.17614700
   143  I          0.29670300       0.42773085       0.17614700
   144  I          0.70329700       0.92773085       0.82385300
   145  O          0.70936000       0.66131170       0.84003000
   146  O          0.29064000       0.16131170       0.15997000
   147  O          0.29064000       0.33868830       0.15997000
   148  O          0.70936000       0.83868830       0.84003000
   149  O          0.53296000       0.56452000       0.74594000
   150  O          0.46704000       0.06452000       0.25406000
   151  O          0.46704000       0.43548000       0.25406000
   152  O          0.53296000       0.93548000       0.74594000
   153  O          0.79816000       0.56642000       0.68554000
   154  O          0.20184000       0.06642000       0.31446000
   155  O          0.20184000       0.43358000       0.31446000
   156  O          0.79816000       0.93358000       0.68554000
   157  O          0.81846000       0.44492000       0.34064000
   158  O          0.18154000       0.94492000       0.65936000
   159  O          0.18154000       0.55508000       0.65936000
   160  O          0.81846000       0.05508000       0.34064000
   161  I          0.81078700       0.48980515       0.50219300
   162  I          0.18921300       0.98980515       0.49780700
   163  I          0.18921300       0.51019485       0.49780700
   164  I          0.81078700       0.01019485       0.50219300
   165  O          0.95606000       0.45006190       0.58903000
   166  O          0.04394000       0.95006190       0.41097000
   167  O          0.04394000       0.54993810       0.41097000
   168  O          0.95606000       0.04993810       0.58903000
   169  O          0.68046000       0.44082000       0.55484000
   170  O          0.31954000       0.94082000       0.44516000
   171  O          0.31954000       0.55918000       0.44516000
   172  O          0.68046000       0.05918000       0.55484000
   173  H          0.80610000       0.47350000       0.28780000
   174  H          0.19390000       0.97350000       0.71220000
   175  H          0.19390000       0.52650000       0.71220000
   176  H          0.80610000       0.02650000       0.28780000
   177  O          0.41565000       0.44132000       0.63935000
   178  O          0.58435000       0.94132000       0.36065000
   179  O          0.58435000       0.55868000       0.36065000
   180  O          0.41565000       0.05868000       0.63935000
