data_GUDTUW
_symmetry_space_group_name_H-M    'P1'
_symmetry_Int_Tables_number       1
loop_
_symmetry_equiv_pos_site_id
_symmetry_equiv_pos_as_xyz
1 x,y,z
_cell_length_a                   8.70003
_cell_length_b                   5.40352
_cell_length_c                   17.19007
_cell_angle_alpha                90.0
_cell_angle_beta                 95.7233
_cell_angle_gamma                90.0
loop_
_atom_site_label
_atom_site_type_symbol
_atom_site_fract_x
_atom_site_fract_y
_atom_site_fract_z
     1  C          0.03022120       0.17700190       0.83029600
     2  C          0.46977880       0.67700190       0.66970400
     3  C          0.96977880       0.82299810       0.16970400
     4  C          0.53022120       0.32299810       0.33029600
     5  O          0.15030900       0.03134150       0.85292500
     6  O          0.34969100       0.53134150       0.64707500
     7  O          0.84969100       0.96865850       0.14707500
     8  O          0.65030900       0.46865850       0.35292500
     9  H          0.11671800       0.91970000       0.88881000
    10  H          0.38328200       0.41970000       0.61119000
    11  H          0.88328200       0.08030000       0.11119000
    12  H          0.61671800       0.58030000       0.38881000
    13  O          0.90480200       0.15275150       0.85419400
    14  O          0.59519800       0.65275150       0.64580600
    15  O          0.09519800       0.84724850       0.14580600
    16  O          0.40480200       0.34724850       0.35419400
    17  C          0.06794120       0.37212000       0.77265600
    18  C          0.43205880       0.87212000       0.72734400
    19  C          0.93205880       0.62788000       0.22734400
    20  C          0.56794120       0.12788000       0.27265600
    21  H          0.15281600       0.47130000       0.79818000
    22  H          0.34718400       0.97130000       0.70182000
    23  H          0.84718400       0.52870000       0.20182000
    24  H          0.65281600       0.02870000       0.29818000
    25  H          0.10891500       0.28830000       0.72768000
    26  H          0.39108500       0.78830000       0.77232000
    27  H          0.89108500       0.71170000       0.27232000
    28  H          0.60891500       0.21170000       0.22768000
    29  C          0.92947880       0.53252000       0.74493600
    30  C          0.57052120       0.03252000       0.75506400
    31  C          0.07052120       0.46748000       0.25506400
    32  C          0.42947880       0.96748000       0.24493600
    33  H          0.89438600       0.62030000       0.78998000
    34  H          0.60561400       0.12030000       0.71002000
    35  H          0.10561400       0.37970000       0.21002000
    36  H          0.39438600       0.87970000       0.28998000
    37  H          0.84508500       0.42730000       0.72298000
    38  H          0.65491500       0.92730000       0.77702000
    39  H          0.15491500       0.57270000       0.27702000
    40  H          0.34508500       0.07270000       0.22298000
    41  C          0.96512870       0.72262000       0.68385600
    42  C          0.53487130       0.22262000       0.81614400
    43  C          0.03487130       0.27738000       0.31614400
    44  C          0.46512870       0.77738000       0.18385600
    45  H          0.88608400       0.84730000       0.67638000
    46  H          0.61391600       0.34730000       0.82362000
    47  H          0.11391600       0.15270000       0.32362000
    48  H          0.38608400       0.65270000       0.17638000
    49  H          0.06161500       0.81330000       0.70028000
    50  H          0.43838500       0.31330000       0.79972000
    51  H          0.93838500       0.18670000       0.29972000
    52  H          0.56161500       0.68670000       0.20028000
    53  C          0.97953890       0.61712000       0.60427600
    54  C          0.52046110       0.11712000       0.89572400
    55  C          0.02046110       0.38288000       0.39572400
    56  C          0.47953890       0.88288000       0.10427600
    57  O          0.01232900       0.78510150       0.55309500
    58  O          0.48767100       0.28510150       0.94690500
    59  O         -0.01232900       0.21489850       0.44690500
    60  O          0.51232900       0.71489850       0.05309500
    61  H          0.02120000       0.71440000       0.50671200
    62  H          0.47880000       0.21440000      -0.00671200
    63  H          0.97880000       0.28560000       0.49328800
    64  H          0.52120000       0.78560000       0.00671200
    65  O          0.96041100       0.39805150       0.58778400
    66  O          0.53958900       0.89805150       0.91221600
    67  O          0.03958900       0.60194850       0.41221600
    68  O          0.46041100       0.10194850       0.08778400
    69  N          0.05684100       0.68294830       0.95342500
    70  N          0.44315900       0.18294830       0.54657500
    71  N          0.94315900       0.31705170       0.04657500
    72  N          0.55684100       0.81705170       0.45342500
    73  C          0.14857120       0.50908000       0.98826600
    74  C          0.35142880       0.00908000       0.51173400
    75  C          0.85142880       0.49092000       0.01173400
    76  C          0.64857120      -0.00908000       0.48826600
    77  H          0.25751700       0.51370000       0.97958000
    78  H          0.24248300       0.01370000       0.52042000
    79  H          0.74248300       0.48630000       0.02042000
    80  H          0.75751700      -0.01370000       0.47958000
    81  C          0.09265130       0.32718000       0.03456600
    82  C          0.40734870       0.82718000       0.46543400
    83  C          0.90734870       0.67282000       0.96543400
    84  C          0.59265130       0.17282000       0.53456600
    85  H          0.16031600       0.19970000       0.06098000
    86  H          0.33968400       0.69970000       0.43902000
    87  H          0.83968400       0.80030000       0.93902000
    88  H          0.66031600       0.30030000       0.56098000
