data_GUFNEC
_symmetry_space_group_name_H-M    'P1'
_symmetry_Int_Tables_number       1
loop_
_symmetry_equiv_pos_site_id
_symmetry_equiv_pos_as_xyz
1 x,y,z
_cell_length_a                   13.133712
_cell_length_b                   5.74845
_cell_length_c                   12.899211
_cell_angle_alpha                90.0
_cell_angle_beta                 101.0808
_cell_angle_gamma                90.0
loop_
_atom_site_label
_atom_site_type_symbol
_atom_site_fract_x
_atom_site_fract_y
_atom_site_fract_z
     1  C          0.20374000       0.64712000       0.84436000
     2  C          0.79626000       0.14712000       0.65564000
     3  C          0.79626000       0.35288000       0.15564000
     4  C          0.20374000       0.85288000       0.34436000
     5  H          0.24230000       0.67590000       0.91150000
     6  H          0.75770000       0.17590000       0.58850000
     7  H          0.75770000       0.32410000       0.08850000
     8  H          0.24230000       0.82410000       0.41150000
     9  C          0.14354000       0.44712000       0.82517000
    10  C          0.85646000       0.94712000       0.67483000
    11  C          0.85646000       0.55288000       0.17483000
    12  C          0.14354000       0.05288000       0.32517000
    13  H          0.14160000       0.34150000       0.87940000
    14  H          0.85840000       0.84150000       0.62060000
    15  H          0.85840000       0.65850000       0.12060000
    16  H          0.14160000       0.15850000       0.37940000
    17  C          0.08713000       0.40653000       0.72647000
    18  C          0.91287000       0.90653000       0.77353000
    19  C          0.91287000       0.59347000       0.27353000
    20  C          0.08713000       0.09347000       0.22647000
    21  H          0.04780000       0.27140000       0.71360000
    22  H          0.95220000       0.77140000       0.78640000
    23  H          0.95220000       0.72860000       0.28640000
    24  H          0.04780000       0.22860000       0.21360000
    25  C          0.08753000       0.56333000       0.64517000
    26  C          0.91247000       0.06333000       0.85483000
    27  C          0.91247000       0.43667000       0.35483000
    28  C          0.08753000       0.93667000       0.14517000
    29  C          0.14753000       0.76163000       0.66567000
    30  C          0.85247000       0.26163000       0.83433000
    31  C          0.85247000       0.23837000       0.33433000
    32  C          0.14753000       0.73837000       0.16567000
    33  H          0.14840000       0.86940000       0.61210000
    34  H          0.85160000       0.36940000       0.88790000
    35  H          0.85160000       0.13060000       0.38790000
    36  H          0.14840000       0.63060000       0.11210000
    37  C          0.20593000       0.80142000       0.76416000
    38  C          0.79407000       0.30142000       0.73584000
    39  C          0.79407000       0.19858000       0.23584000
    40  C          0.20593000       0.69858000       0.26416000
    41  H          0.24710000       0.93390000       0.77650000
    42  H          0.75290000       0.43390000       0.72350000
    43  H          0.75290000       0.06610000       0.22350000
    44  H          0.24710000       0.56610000       0.27650000
    45  C          0.02553000       0.51913000       0.54227000
    46  C          0.97447000       0.01913000       0.95773000
    47  C          0.97447000       0.48087000       0.45773000
    48  C          0.02553000      -0.01913000       0.04227000
    49  C          0.47273000       0.54977000       0.09462000
    50  C          0.52727000       0.04977000       0.40538000
    51  C          0.52727000       0.45023000       0.90538000
    52  C          0.47273000       0.95023000       0.59462000
    53  C          0.42803000       0.36076000       0.03863000
    54  C          0.57197000       0.86076000       0.46137000
    55  C          0.57197000       0.63924000       0.96137000
    56  C          0.42803000       0.13924000       0.53863000
    57  C          0.45663000       0.31266000       0.94377000
    58  C          0.54337000       0.81266000       0.55623000
    59  C          0.54337000       0.68734000       0.05623000
    60  C          0.45663000       0.18734000       0.44377000
    61  F          0.44781180       0.60664000       0.18738150
    62  F          0.55218820       0.10664000       0.31261850
    63  F          0.55218820       0.39336000       0.81261850
    64  F          0.44781180       0.89336000       0.68738150
    65  F          0.41612000       0.12864000       0.88633820
    66  F          0.58388000       0.62864000       0.61366180
    67  F          0.58388000       0.87136000       0.11366180
    68  F          0.41612000       0.37136000       0.38633820
    69  I          0.31944519       0.15681500       0.09362019
    70  I          0.68055481       0.65681500       0.40637981
    71  I          0.68055481       0.84318500       0.90637981
    72  I          0.31944519       0.34318500       0.59362019
