data_GUFQAC
_symmetry_space_group_name_H-M    'P1'
_symmetry_Int_Tables_number       1
loop_
_symmetry_equiv_pos_site_id
_symmetry_equiv_pos_as_xyz
1 x,y,z
_cell_length_a                   13.15092
_cell_length_b                   6.885601
_cell_length_c                   14.01522
_cell_angle_alpha                90.0
_cell_angle_beta                 108.4382
_cell_angle_gamma                90.0
loop_
_atom_site_label
_atom_site_type_symbol
_atom_site_fract_x
_atom_site_fract_y
_atom_site_fract_z
     1  O          0.18521160       0.19403000       0.73282160
     2  O          0.81478840       0.69403000       0.26717840
     3  O          0.32392180       0.25324000       0.86137160
     4  O          0.67607820       0.75324000       0.13862840
     5  N          0.49695190       0.31323000       0.41115170
     6  N          0.50304810       0.81323000       0.58884830
     7  H          0.42730000       0.35460000       0.37430000
     8  H          0.57270000       0.85460000       0.62570000
     9  N          0.64220170       0.26943000       0.54472160
    10  N          0.35779830       0.76943000       0.45527840
    11  N          0.28067190       0.23663000       0.77111180
    12  N          0.71932810       0.73663000       0.22888820
    13  C          0.53622000       0.29754000       0.51282000
    14  C          0.46378000       0.79754000       0.48718000
    15  C          0.67092000       0.26764000       0.45868190
    16  C          0.32908000       0.76764000       0.54131810
    17  C          0.58202000       0.29404000       0.37522000
    18  C          0.41798000       0.79404000       0.62478000
    19  C          0.58482000       0.29084000       0.27422000
    20  C          0.41518000       0.79084000       0.72578000
    21  C          0.49483000       0.31685000       0.18882000
    22  C          0.50517000       0.81685000       0.81118000
    23  H          0.42699100       0.34463900       0.19629700
    24  H          0.57300900       0.84463900       0.80370300
    25  C          0.50493000       0.30185000       0.09372000
    26  C          0.49507000       0.80185000       0.90628000
    27  H          0.44371600       0.31991500       0.03619200
    28  H          0.55628400       0.81991500       0.96380800
    29  C          0.60283000       0.26085000       0.08172000
    30  C          0.39717000       0.76085000       0.91828000
    31  H          0.60775300       0.25047000       0.01572000
    32  H          0.39224700       0.75047000       0.98428000
    33  C          0.69463000       0.23415000       0.16422000
    34  C          0.30537000       0.73415000       0.83578000
    35  C          0.79653000       0.18755000       0.15373000
    36  C          0.20347000       0.68755000       0.84627000
    37  H          0.80243000       0.17434200       0.08818700
    38  H          0.19757000       0.67434200       0.91181300
    39  C          0.88423000       0.16175000       0.23413000
    40  C          0.11577000       0.66175000       0.76587000
    41  H          0.95046100       0.13091800       0.22390300
    42  H          0.04953900       0.63091800       0.77609700
    43  C          0.88033000       0.17974000       0.33483000
    44  C          0.11967000       0.67974000       0.66517000
    45  C          0.97083000       0.15205000       0.41893000
    46  C          0.02917000       0.65205000       0.58107000
    47  H          0.03763700       0.12258600       0.40960800
    48  H          0.96236300       0.62258600       0.59039200
    49  C          0.96482000       0.16655000       0.51513000
    50  C          0.03518000       0.66655000       0.48487000
    51  H          0.02726400       0.14738500       0.57119600
    52  H          0.97273600       0.64738500       0.42880400
    53  C          0.86792000       0.20894000       0.53032000
    54  C          0.13208000       0.70894000       0.46968000
    55  H          0.86468400       0.22050600       0.59687400
    56  H          0.13531600       0.72050600       0.40312600
    57  C          0.77522000       0.23454000       0.44872000
    58  C          0.22478000       0.73454000       0.55128000
    59  C          0.78042000       0.22354000       0.34902000
    60  C          0.21958000       0.72354000       0.65098000
    61  C          0.68632000       0.25154000       0.26292000
    62  C          0.31368000       0.75154000       0.73708000
    63  C          0.46862000       0.29604000       0.57822000
    64  C          0.53138000       0.79604000       0.42178000
    65  C          0.51472000       0.32074000       0.68212000
    66  C          0.48528000       0.82074000       0.31788000
    67  H          0.58912800       0.34832800       0.70927900
    68  H          0.41087200       0.84832800       0.29072100
    69  C          0.45352000       0.30544000       0.74522000
    70  C          0.54648000       0.80544000       0.25478000
    71  H          0.48479200       0.32230500       0.81573100
    72  H          0.51520800       0.82230500       0.18426900
    73  C          0.34482000       0.26494000       0.70362000
    74  C          0.65518000       0.76494000       0.29638000
    75  C          0.29652000       0.24594000       0.60112000
    76  C          0.70348000       0.74594000       0.39888000
    77  H          0.22164200       0.22210300       0.57421600
    78  H          0.77835800       0.72210300       0.42578400
    79  C          0.35822000       0.26194000       0.53872000
    80  C          0.64178000       0.76194000       0.46128000
    81  H          0.32575000       0.24984700       0.46799500
    82  H          0.67425000       0.74984700       0.53200500
    83  O          0.30114150       0.47873000       0.31092150
    84  O          0.69885850       0.97873000       0.68907850
    85  H          0.31140000       0.58890000       0.35840000
    86  H          0.68860000       0.08890000       0.64160000
    87  C          0.19122000       0.42434000       0.26632000
    88  C          0.80878000       0.92434000       0.73368000
    89  H          0.15808600       0.40495400       0.32072800
    90  H          0.84191400       0.90495400       0.67927200
    91  C          0.12962000       0.57944000       0.19522190
    92  C          0.87038000       0.07944000       0.80477810
    93  C          0.02162000       0.61054000       0.18382000
    94  C          0.97838000       0.11054000       0.81618000
    95  H         -0.01178000       0.53865000       0.22350000
    96  H          0.01178000       0.03865000       0.77650000
    97  C          0.96228000       0.74584000       0.11482000
    98  C          0.03772000       0.24584000       0.88518000
    99  H          0.88875500       0.76563600       0.10734100
   100  H          0.11124500       0.26563600       0.89265900
   101  C          0.01032000       0.85084000       0.05732000
   102  C         -0.01032000       0.35084000       0.94268000
   103  H          0.96952000       0.94230500       0.00968200
   104  H          0.03048000       0.44230500      -0.00968200
   105  C          0.11802000       0.82344000       0.06862000
   106  C          0.88198000       0.32344000       0.93138000
   107  H          0.15122600       0.89771400       0.02957400
   108  H          0.84877400       0.39771400       0.97042600
   109  C          0.17722000       0.68774000       0.13686190
   110  C          0.82278000       0.18774000       0.86313810
   111  H          0.25079000       0.66852800       0.14388200
   112  H          0.74921000       0.16852800       0.85611800
   113  C          0.19092000       0.23254000       0.21302000
   114  C          0.80908000       0.73254000       0.78698000
   115  H          0.22473800       0.24958800       0.16052100
   116  H          0.77526200       0.74958800       0.83947900
   117  H          0.11681500       0.18835700       0.18238200
   118  H          0.88318500       0.68835700       0.81761800
   119  H          0.23082000       0.13546300       0.26165000
   120  H          0.76918000       0.63546300       0.73835000
