data_GUGCER
_symmetry_space_group_name_H-M    'P1'
_symmetry_Int_Tables_number       1
loop_
_symmetry_equiv_pos_site_id
_symmetry_equiv_pos_as_xyz
1 x,y,z
_cell_length_a                   5.1053
_cell_length_b                   26.9801
_cell_length_c                   16.0935
_cell_angle_alpha                90.0
_cell_angle_beta                 97.7058
_cell_angle_gamma                90.0
loop_
_atom_site_label
_atom_site_type_symbol
_atom_site_fract_x
_atom_site_fract_y
_atom_site_fract_z
     1  Br         0.96828870       0.18330300       0.17414400
     2  Br         0.03171130       0.68330300       0.32585600
     3  Br         0.03171130       0.81669700       0.82585600
     4  Br         0.96828870       0.31669700       0.67414400
     5  F          0.13581000       0.45815160       0.55953000
     6  F          0.86419000       0.95815160       0.94047000
     7  F          0.86419000       0.54184840       0.44047000
     8  F          0.13581000       0.04184840       0.05953000
     9  O          0.40968000       0.24903150       0.53382000
    10  O          0.59032000       0.74903150       0.96618000
    11  O          0.59032000       0.75096850       0.46618000
    12  O          0.40968000       0.25096850       0.03382000
    13  H          0.56110000       0.23350000       0.57800000
    14  H          0.43890000       0.73350000       0.92200000
    15  H          0.43890000       0.76650000       0.42200000
    16  H          0.56110000       0.26650000       0.07800000
    17  O          0.69459000       0.18565170       0.61073000
    18  O          0.30541000       0.68565170       0.88927000
    19  O          0.30541000       0.81434830       0.38927000
    20  O          0.69459000       0.31434830       0.11073000
    21  O          0.82828000       0.15379150       0.40193000
    22  O          0.17172000       0.65379150       0.09807000
    23  O          0.17172000       0.84620850       0.59807000
    24  O          0.82828000       0.34620850       0.90193000
    25  O          0.75791400       0.09492000       0.66723000
    26  O          0.24208600       0.59492000       0.83277000
    27  O          0.24208600       0.90508000       0.33277000
    28  O          0.75791400       0.40508000       0.16723000
    29  H          0.87160000       0.05740000       0.66230000
    30  H          0.12840000       0.55740000       0.83770000
    31  H          0.12840000       0.94260000       0.33770000
    32  H          0.87160000       0.44260000       0.16230000
    33  O          0.47031700       0.06642000       0.56505000
    34  O          0.52968300       0.56642000       0.93495000
    35  O          0.52968300       0.93358000       0.43495000
    36  O          0.47031700       0.43358000       0.06505000
    37  N          0.81348000       0.30502160       0.37892000
    38  N          0.18652000       0.80502160       0.12108000
    39  N          0.18652000       0.69497840       0.62108000
    40  N          0.81348000       0.19497840       0.87892000
    41  C          0.24941000       0.21522000       0.50193000
    42  C          0.75059000       0.71522000      -0.00193000
    43  C          0.75059000       0.78478000       0.49807000
    44  C          0.24941000       0.28478000       0.00193000
    45  C          0.41881000       0.19782000       0.29483000
    46  C          0.58119000       0.69782000       0.20517000
    47  C          0.58119000       0.80218000       0.70517000
    48  C          0.41881000       0.30218000       0.79483000
    49  H          0.41730000       0.16350000       0.29980000
    50  H          0.58270000       0.66350000       0.20020000
    51  H          0.58270000       0.83650000       0.70020000
    52  H          0.41730000       0.33650000       0.79980000
    53  C          0.00101000       0.28192000       0.43083000
    54  C         -0.00101000       0.78192000       0.06917000
    55  C         -0.00101000       0.71808000       0.56917000
    56  C          0.00101000       0.21808000       0.93083000
    57  H          0.12950000       0.30160000       0.46100000
    58  H          0.87050000       0.80160000       0.03900000
    59  H          0.87050000       0.69840000       0.53900000
    60  H          0.12950000       0.19840000       0.96100000
    61  C          0.57701100       0.36642000       0.49543000
    62  C          0.42298900       0.86642000       0.00457000
    63  C          0.42298900       0.63358000       0.50457000
    64  C          0.57701100       0.13358000      -0.00457000
    65  H          0.65510000       0.33670000       0.51510000
    66  H          0.34490000       0.83670000       0.98490000
    67  H          0.34490000       0.66330000       0.48490000
    68  H          0.65510000       0.16330000       0.01510000
    69  C          0.82751100       0.19942000       0.39803000
    70  C          0.17248900       0.69942000       0.10197000
    71  C          0.17248900       0.80058000       0.60197000
    72  C          0.82751100       0.30058000       0.89803000
    73  C          0.21931100       0.27193000       0.23413000
    74  C          0.78068900       0.77193000       0.26587000
    75  C          0.78068900       0.72807000       0.76587000
    76  C          0.21931100       0.22807000       0.73413000
    77  H          0.08530000       0.28710000       0.19810000
    78  H          0.91470000       0.78710000       0.30190000
    79  H          0.91470000       0.71290000       0.80190000
    80  H          0.08530000       0.21290000       0.69810000
    81  C          0.61201000       0.27692000       0.33393000
    82  C          0.38799000       0.77692000       0.16607000
    83  C          0.38799000       0.72308000       0.66607000
    84  C          0.61201000       0.22308000       0.83393000
    85  C          0.61689000       0.22582000       0.34193000
    86  C          0.38311000       0.72582000       0.15807000
    87  C          0.38311000       0.77418000       0.65807000
    88  C          0.61689000       0.27418000       0.84193000
    89  C          0.22761000       0.22142000       0.24153000
    90  C          0.77239000       0.72142000       0.25847000
    91  C          0.77239000       0.77858000       0.75847000
    92  C          0.22761000       0.27858000       0.74153000
    93  C          0.40941100       0.29992000       0.28003000
    94  C          0.59058900       0.79992000       0.21997000
    95  C          0.59058900       0.70008000       0.71997000
    96  C          0.40941100       0.20008000       0.78003000
    97  H          0.40450000       0.33430000       0.27540000
    98  H          0.59550000       0.83430000       0.22460000
    99  H          0.59550000       0.66570000       0.72460000
   100  H          0.40450000       0.16570000       0.77540000
   101  C          0.82031100       0.35942000       0.37163000
   102  C          0.17968900       0.85942000       0.12837000
   103  C          0.17968900       0.64058000       0.62837000
   104  C          0.82031100       0.14058000       0.87163000
   105  H          0.78100000       0.36850000       0.31290000
   106  H          0.21900000       0.86850000       0.18710000
   107  H          0.21900000       0.63150000       0.68710000
   108  H          0.78100000       0.13150000       0.81290000
   109  H         -0.00250000       0.37100000       0.39160000
   110  H          0.00250000       0.87100000       0.10840000
   111  H          0.00250000       0.62900000       0.60840000
   112  H         -0.00250000       0.12900000       0.89160000
   113  C          0.52581200       0.15352000       0.57794000
   114  C          0.47418800       0.65352000       0.92206000
   115  C          0.47418800       0.84648000       0.42206000
   116  C          0.52581200       0.34648000       0.07794000
   117  C          0.02111000       0.23242000       0.44353000
   118  C         -0.02111000       0.73242000       0.05647000
   119  C         -0.02111000       0.76758000       0.55647000
   120  C          0.02111000       0.26758000       0.94353000
   121  C          0.62811000       0.38502000       0.41993000
   122  C          0.37189000       0.88502000       0.08007000
   123  C          0.37189000       0.61498000       0.58007000
   124  C          0.62811000       0.11498000       0.91993000
   125  C          0.40961300       0.39123000       0.54314000
   126  C          0.59038700       0.89123000       0.95686000
   127  C          0.59038700       0.60877000       0.45686000
   128  C          0.40961300       0.10877000       0.04314000
   129  H          0.37560000       0.37850000       0.59430000
   130  H          0.62440000       0.87850000       0.90570000
   131  H          0.62440000       0.62150000       0.40570000
   132  H          0.37560000       0.12150000       0.09430000
   133  C          0.58121700       0.10033000       0.60315000
   134  C          0.41878300       0.60033000       0.89685000
   135  C          0.41878300       0.89967000       0.39685000
   136  C          0.58121700       0.39967000       0.10315000
   137  C          0.30161100       0.16522000       0.52323000
   138  C          0.69838900       0.66522000       0.97677000
   139  C          0.69838900       0.83478000       0.47677000
   140  C          0.30161100       0.33478000       0.02323000
   141  H          0.18680000       0.14040000       0.50080000
   142  H          0.81320000       0.64040000      -0.00080000
   143  H          0.81320000       0.85960000       0.49920000
   144  H          0.18680000       0.35960000       0.00080000
   145  C          0.50501400       0.42912000       0.39094000
   146  C          0.49498600       0.92912000       0.10906000
   147  C          0.49498600       0.57088000       0.60906000
   148  C          0.50501400       0.07088000       0.89094000
   149  H          0.53490000       0.44200000       0.33940000
   150  H          0.46510000       0.94200000       0.16060000
   151  H          0.46510000       0.55800000       0.66060000
   152  H          0.53490000       0.05800000       0.83940000
   153  C          0.29651400       0.43472000       0.51294000
   154  C          0.70348600       0.93472000       0.98706000
   155  C          0.70348600       0.56528000       0.48706000
   156  C          0.29651400       0.06528000       0.01294000
   157  C          0.34081600       0.45352000       0.43775000
   158  C          0.65918400       0.95352000       0.06225000
   159  C          0.65918400       0.54648000       0.56225000
   160  C          0.34081600       0.04648000       0.93775000
   161  H          0.25950000       0.48290000       0.41810000
   162  H          0.74050000       0.98290000       0.08190000
   163  H          0.74050000       0.51710000       0.58190000
   164  H          0.25950000       0.01710000       0.91810000
   165  S          0.10046000       0.04132110       0.30232000
   166  S          0.89954000       0.54132110       0.19768000
   167  S          0.89954000       0.95867890       0.69768000
   168  S          0.10046000       0.45867890       0.80232000
   169  O          0.16720000       0.99027000       0.27014000
   170  O          0.83280000       0.49027000       0.22986000
   171  O          0.83280000       0.00973000       0.72986000
   172  O          0.16720000       0.50973000       0.77014000
   173  C          0.78580000       0.05425000       0.25108000
   174  C          0.21420000       0.55425000       0.24892000
   175  C          0.21420000       0.94575000       0.74892000
   176  C          0.78580000       0.44575000       0.75108000
   177  H          0.78300000       0.04950000       0.19170000
   178  H          0.21700000       0.54950000       0.30830000
   179  H          0.21700000       0.95050000       0.80830000
   180  H          0.78300000       0.45050000       0.69170000
   181  H          0.74020000       0.08800000       0.26170000
   182  H          0.25980000       0.58800000       0.23830000
   183  H          0.25980000       0.91200000       0.73830000
   184  H          0.74020000       0.41200000       0.76170000
   185  H          0.65970000       0.03240000       0.27110000
   186  H          0.34030000       0.53240000       0.22890000
   187  H          0.34030000       0.96760000       0.72890000
   188  H          0.65970000       0.46760000       0.77110000
   189  C          0.01740000       0.03134000       0.40167000
   190  C         -0.01740000       0.53134000       0.09833000
   191  C         -0.01740000       0.96866000       0.59833000
   192  C          0.01740000       0.46866000       0.90167000
   193  H          0.92610000       0.00030000       0.40270000
   194  H          0.07390000       0.50030000       0.09730000
   195  H          0.07390000      -0.00030000       0.59730000
   196  H          0.92610000       0.49970000       0.90270000
   197  H          0.90470000       0.05760000       0.41570000
   198  H          0.09530000       0.55760000       0.08430000
   199  H          0.09530000       0.94240000       0.58430000
   200  H          0.90470000       0.44240000       0.91570000
   201  H          0.17500000       0.03050000       0.44140000
   202  H          0.82500000       0.53050000       0.05860000
   203  H          0.82500000       0.96950000       0.55860000
   204  H          0.17500000       0.46950000       0.94140000
