data_GUHYOZ
_symmetry_space_group_name_H-M    'P1'
_symmetry_Int_Tables_number       1
loop_
_symmetry_equiv_pos_site_id
_symmetry_equiv_pos_as_xyz
1 x,y,z
_cell_length_a                   7.89306
_cell_length_b                   16.808813
_cell_length_c                   20.996216
_cell_angle_alpha                90.0
_cell_angle_beta                 97.8033
_cell_angle_gamma                90.0
loop_
_atom_site_label
_atom_site_type_symbol
_atom_site_fract_x
_atom_site_fract_y
_atom_site_fract_z
     1  I          0.20603200       0.23394200       0.64245200
     2  I          0.79396800       0.23394200       0.85754800
     3  I          0.70603200       0.73394200       0.64245200
     4  I          0.29396800       0.73394200       0.85754800
     5  I          0.79396800       0.76605800       0.35754800
     6  I          0.20603200       0.76605800       0.14245200
     7  I          0.29396800       0.26605800       0.35754800
     8  I          0.70603200       0.26605800       0.14245200
     9  I          0.73344200       0.23667200       0.65441200
    10  I          0.26655800       0.23667200       0.84558800
    11  I          0.23344200       0.73667200       0.65441200
    12  I          0.76655800       0.73667200       0.84558800
    13  I          0.26655800       0.76332800       0.34558800
    14  I          0.73344200       0.76332800       0.15441200
    15  I          0.76655800       0.26332800       0.34558800
    16  I          0.23344200       0.26332800       0.15441200
    17  F          0.57429190       0.34488130       0.54284900
    18  F          0.42570810       0.34488130       0.95715100
    19  F          0.07429190       0.84488130       0.54284900
    20  F          0.92570810       0.84488130       0.95715100
    21  F          0.42570810       0.65511870       0.45715100
    22  F          0.57429190       0.65511870       0.04284900
    23  F          0.92570810       0.15511870       0.45715100
    24  F          0.07429190       0.15511870       0.04284900
    25  F          0.69842000       0.43431120       0.45505900
    26  F          0.30158000       0.43431120       0.04494100
    27  F          0.19842000       0.93431120       0.45505900
    28  F          0.80158000       0.93431120       0.04494100
    29  F          0.30158000       0.56568880       0.54494100
    30  F          0.69842000       0.56568880       0.95505900
    31  F          0.80158000       0.06568880       0.54494100
    32  F          0.19842000       0.06568880       0.95505900
    33  F          0.03822000       0.43372120       0.44632900
    34  F          0.96178000       0.43372120       0.05367100
    35  F          0.53822000       0.93372120       0.44632900
    36  F          0.46178000       0.93372120       0.05367100
    37  F          0.96178000       0.56627880       0.55367100
    38  F          0.03822000       0.56627880       0.94632900
    39  F          0.46178000       0.06627880       0.55367100
    40  F          0.53822000       0.06627880       0.94632900
    41  F          0.25082000       0.34428140       0.52645100
    42  F          0.74918000       0.34428140       0.97354900
    43  F          0.75082000       0.84428140       0.52645100
    44  F          0.24918000       0.84428140       0.97354900
    45  F          0.74918000       0.65571860       0.47354900
    46  F          0.25082000       0.65571860       0.02645100
    47  F          0.24918000       0.15571860       0.47354900
    48  F          0.75082000       0.15571860       0.02645100
    49  C          0.02453000       0.29692140       0.57959110
    50  C          0.97547000       0.29692140       0.92040890
    51  C          0.52453000       0.79692140       0.57959110
    52  C          0.47547000       0.79692140       0.92040890
    53  C          0.97547000       0.70307860       0.42040890
    54  C          0.02453000       0.70307860       0.07959110
    55  C          0.47547000       0.20307860       0.42040890
    56  C          0.52453000       0.20307860       0.07959110
    57  C          0.84943000       0.29779140       0.58425110
    58  C          0.15057000       0.29779140       0.91574890
    59  C          0.34943000       0.79779140       0.58425110
    60  C          0.65057000       0.79779140       0.91574890
    61  C          0.15057000       0.70220860       0.41574890
    62  C          0.84943000       0.70220860       0.08425110
    63  C          0.65057000       0.20220860       0.41574890
    64  C          0.34943000       0.20220860       0.08425110
    65  C          0.74363000       0.34314170       0.54106120
    66  C          0.25637000       0.34314170       0.95893880
    67  C          0.24363000       0.84314170       0.54106120
    68  C          0.75637000       0.84314170       0.95893880
    69  C          0.25637000       0.65685830       0.45893880
    70  C          0.74363000       0.65685830       0.04106120
    71  C          0.75637000       0.15685830       0.45893880
    72  C          0.24363000       0.15685830       0.04106120
    73  C          0.80503000       0.38943160       0.49509120
    74  C          0.19497000       0.38943160       0.00490880
    75  C          0.30503000       0.88943160       0.49509120
    76  C          0.69497000       0.88943160       0.00490880
    77  C          0.19497000       0.61056840       0.50490880
    78  C          0.80503000       0.61056840      -0.00490880
    79  C          0.69497000       0.11056840       0.50490880
    80  C          0.30503000       0.11056840      -0.00490880
    81  C          0.97613000       0.38863160       0.49051130
    82  C          0.02387000       0.38863160       0.00948870
    83  C          0.47613000       0.88863160       0.49051130
    84  C          0.52387000       0.88863160       0.00948870
    85  C          0.02387000       0.61136840       0.50948870
    86  C          0.97613000       0.61136840       0.99051130
    87  C          0.52387000       0.11136840       0.50948870
    88  C          0.47613000       0.11136840       0.99051130
    89  C          0.08383000       0.34232170       0.53238130
    90  C          0.91617000       0.34232170       0.96761870
    91  C          0.58383000       0.84232170       0.53238130
    92  C          0.41617000       0.84232170       0.96761870
    93  C          0.91617000       0.65767830       0.46761870
    94  C          0.08383000       0.65767830       0.03238130
    95  C          0.41617000       0.15767830       0.46761870
    96  C          0.58383000       0.15767830       0.03238130
    97  Cl         0.50000000       0.15395500       0.75000000
    98  Cl        -0.00000000       0.65395500       0.75000000
    99  Cl         0.50000000       0.84604500       0.25000000
   100  Cl         0.00000000       0.34604500       0.25000000
   101  N         -0.00000000       0.98253150       0.75000000
   102  N          0.50000000       0.48253150       0.75000000
   103  N          0.00000000       0.01746850       0.25000000
   104  N          0.50000000       0.51746850       0.25000000
   105  C          0.06744000       0.03725150       0.70149130
   106  C          0.93256000       0.03725150       0.79850870
   107  C          0.56744000       0.53725150       0.70149130
   108  C          0.43256000       0.53725150       0.79850870
   109  C          0.93256000       0.96274850       0.29850870
   110  C          0.06744000       0.96274850       0.20149130
   111  C          0.43256000       0.46274850       0.29850870
   112  C          0.56744000       0.46274850       0.20149130
   113  H          0.97250000       0.07150000       0.68180000
   114  H          0.02750000       0.07150000       0.81820000
   115  H          0.47250000       0.57150000       0.68180000
   116  H          0.52750000       0.57150000       0.81820000
   117  H          0.02750000       0.92850000       0.31820000
   118  H          0.97250000       0.92850000       0.18180000
   119  H          0.52750000       0.42850000       0.31820000
   120  H          0.47250000       0.42850000       0.18180000
   121  H          0.15580000       0.07230000       0.72470000
   122  H          0.84420000       0.07230000       0.77530000
   123  H          0.65580000       0.57230000       0.72470000
   124  H          0.34420000       0.57230000       0.77530000
   125  H          0.84420000       0.92770000       0.27530000
   126  H          0.15580000       0.92770000       0.22470000
   127  H          0.34420000       0.42770000       0.27530000
   128  H          0.65580000       0.42770000       0.22470000
   129  C          0.14355000      -0.00508000       0.64821180
   130  C          0.85645000      -0.00508000       0.85178820
   131  C          0.64355000       0.49492000       0.64821180
   132  C          0.35645000       0.49492000       0.85178820
   133  C          0.85645000       0.00508000       0.35178820
   134  C          0.14355000       0.00508000       0.14821180
   135  C          0.35645000       0.50508000       0.35178820
   136  C          0.64355000       0.50508000       0.14821180
   137  H          0.18310000       0.03430000       0.61920000
   138  H          0.81690000       0.03430000       0.88080000
   139  H          0.68310000       0.53430000       0.61920000
   140  H          0.31690000       0.53430000       0.88080000
   141  H          0.81690000       0.96570000       0.38080000
   142  H          0.18310000       0.96570000       0.11920000
   143  H          0.31690000       0.46570000       0.38080000
   144  H          0.68310000       0.46570000       0.11920000
   145  H          0.05640000       0.96090000       0.62410000
   146  H          0.94360000       0.96090000       0.87590000
   147  H          0.55640000       0.46090000       0.62410000
   148  H          0.44360000       0.46090000       0.87590000
   149  H          0.94360000       0.03910000       0.37590000
   150  H          0.05640000       0.03910000       0.12410000
   151  H          0.44360000       0.53910000       0.37590000
   152  H          0.55640000       0.53910000       0.12410000
   153  H          0.24030000       0.96210000       0.66690000
   154  H          0.75970000       0.96210000       0.83310000
   155  H          0.74030000       0.46210000       0.66690000
   156  H          0.25970000       0.46210000       0.83310000
   157  H          0.75970000       0.03790000       0.33310000
   158  H          0.24030000       0.03790000       0.16690000
   159  H          0.25970000       0.53790000       0.33310000
   160  H          0.74030000       0.53790000       0.16690000
   161  C          0.85994000       0.92855160       0.71801150
   162  C          0.14006000       0.92855160       0.78198850
   163  C          0.35994000       0.42855160       0.71801150
   164  C          0.64006000       0.42855160       0.78198850
   165  C          0.14006000       0.07144840       0.28198850
   166  C          0.85994000       0.07144840       0.21801150
   167  C          0.64006000       0.57144840       0.28198850
   168  C          0.35994000       0.57144840       0.21801150
   169  H          0.90770000       0.89540000       0.68580000
   170  H          0.09230000       0.89540000       0.81420000
   171  H          0.40770000       0.39540000       0.68580000
   172  H          0.59230000       0.39540000       0.81420000
   173  H          0.09230000       0.10460000       0.31420000
   174  H          0.90770000       0.10460000       0.18580000
   175  H          0.59230000       0.60460000       0.31420000
   176  H          0.40770000       0.60460000       0.18580000
   177  H          0.82460000       0.89220000       0.75100000
   178  H          0.17540000       0.89220000       0.74900000
   179  H          0.32460000       0.39220000       0.75100000
   180  H          0.67540000       0.39220000       0.74900000
   181  H          0.17540000       0.10780000       0.24900000
   182  H          0.82460000       0.10780000       0.25100000
   183  H          0.67540000       0.60780000       0.24900000
   184  H          0.32460000       0.60780000       0.25100000
   185  C          0.70224000       0.97082000       0.68505180
   186  C          0.29776000       0.97082000       0.81494820
   187  C          0.20224000       0.47082000       0.68505180
   188  C          0.79776000       0.47082000       0.81494820
   189  C          0.29776000       0.02918000       0.31494820
   190  C          0.70224000       0.02918000       0.18505180
   191  C          0.79776000       0.52918000       0.31494820
   192  C          0.20224000       0.52918000       0.18505180
   193  H          0.61910000       0.93130000       0.66580000
   194  H          0.38090000       0.93130000       0.83420000
   195  H          0.11910000       0.43130000       0.66580000
   196  H          0.88090000       0.43130000       0.83420000
   197  H          0.38090000       0.06870000       0.33420000
   198  H          0.61910000       0.06870000       0.16580000
   199  H          0.88090000       0.56870000       0.33420000
   200  H          0.11910000       0.56870000       0.16580000
   201  H          0.73440000       0.00580000       0.65140000
   202  H          0.26560000       0.00580000       0.84860000
   203  H          0.23440000       0.50580000       0.65140000
   204  H          0.76560000       0.50580000       0.84860000
   205  H          0.26560000      -0.00580000       0.34860000
   206  H          0.73440000      -0.00580000       0.15140000
   207  H          0.76560000       0.49420000       0.34860000
   208  H          0.23440000       0.49420000       0.15140000
   209  H          0.65110000       0.00250000       0.71670000
   210  H          0.34890000       0.00250000       0.78330000
   211  H          0.15110000       0.50250000       0.71670000
   212  H          0.84890000       0.50250000       0.78330000
   213  H          0.34890000      -0.00250000       0.28330000
   214  H          0.65110000      -0.00250000       0.21670000
   215  H          0.84890000       0.49750000       0.28330000
   216  H          0.15110000       0.49750000       0.21670000
