data_GUJHUS
_symmetry_space_group_name_H-M    'P1'
_symmetry_Int_Tables_number       1
loop_
_symmetry_equiv_pos_site_id
_symmetry_equiv_pos_as_xyz
1 x,y,z
_cell_length_a                   7.9492
_cell_length_b                   14.8605
_cell_length_c                   22.4398
_cell_angle_alpha                105.3801
_cell_angle_beta                 94.7898
_cell_angle_gamma                105.3296
loop_
_atom_site_label
_atom_site_type_symbol
_atom_site_fract_x
_atom_site_fract_y
_atom_site_fract_z
     1  I          0.82593400       0.53153200       0.40019200
     2  I          0.17406600       0.46846800       0.59980800
     3  I          0.63413400       0.33628200       0.11760200
     4  I          0.36586600       0.66371800       0.88239800
     5  I          0.36744400       0.59720300       0.23308200
     6  I          0.63255600       0.40279700       0.76691800
     7  F          0.60683000       0.39986190       0.26381120
     8  F          0.39317000       0.60013810       0.73618880
     9  F          0.17703000       0.60832000       0.35112120
    10  F          0.82297000       0.39168000       0.64887880
    11  F          0.03063000       0.45752000       0.13554110
    12  F          0.96937000       0.54248000       0.86445890
    13  C          0.77155000       0.44423000       0.25727180
    14  C          0.22845000       0.55577000       0.74272820
    15  C         -0.01655000       0.47223000       0.19268180
    16  C          0.01655000       0.52777000       0.80731820
    17  C          0.05815000       0.54793000       0.30085190
    18  C          0.94185000       0.45207000       0.69914810
    19  C          0.81325000       0.42693000       0.19799180
    20  C          0.18675000       0.57307000       0.80200820
    21  C          0.89015000       0.50523000       0.30964180
    22  C          0.10985000       0.49477000       0.69035820
    23  C          0.10995000       0.53233000       0.24332000
    24  C          0.89005000       0.46767000       0.75668000
    25  O          0.22574000       0.94128000       0.49550860
    26  O          0.77426000       0.05872000       0.50449140
    27  N          0.45164000       0.12433000       0.78258850
    28  N          0.54836000       0.87567000       0.21741150
    29  N          0.31094000       0.06233000       0.75362840
    30  N          0.68906000       0.93767000       0.24637160
    31  N          0.48355000       0.22023000       0.97840830
    32  N          0.51645000       0.77977000       0.02159170
    33  C          0.45495000       0.15283000       0.84758810
    34  C          0.54505000       0.84717000       0.15241190
    35  C          0.23885000       0.96747000       0.55868000
    36  C          0.76115000       0.03253000       0.44132000
    37  C          0.29765000       0.03253000       0.68816810
    38  C          0.70235000       0.96747000       0.31183190
    39  C          0.31436000       0.12383000       0.87788000
    40  C          0.68564000       0.87617000       0.12212000
    41  H          0.20690300       0.08063900       0.85511600
    42  H          0.79309700       0.91936100       0.14488400
    43  C          0.39886000       0.03404000       0.59158000
    44  C          0.60114000       0.96596000       0.40842000
    45  C          0.10146000       0.85806000       0.39038000
    46  C          0.89854000       0.14194000       0.60962000
    47  C          0.42876000       0.06583000       0.65498000
    48  C          0.57124000       0.93417000       0.34502000
    49  C          0.84814000       0.70947000       0.22278000
    50  C          0.15186000       0.29053000       0.77722000
    51  C          0.94384000       0.79136000       0.34108000
    52  C          0.05616000       0.20864000       0.65892000
    53  C          0.33616000       0.15994000       0.94248000
    54  C          0.66384000       0.84006000       0.05752000
    55  C          0.90974000       0.69636000       0.15998000
    56  C          0.09026000       0.30364000       0.84002000
    57  C          0.06706000       0.87276000       0.45618000
    58  C          0.93294000       0.12724000       0.54382000
    59  C          0.13986000       0.96576000       0.65528000
    60  C          0.86014000       0.03424000       0.34472000
    61  C          0.60916000       0.21844000       0.88608000
    62  C          0.39084000       0.78156000       0.11392000
    63  C          0.77623000       0.62996000       0.10408000
    64  C          0.22377000       0.37004000       0.89592000
    65  C          0.10776000       0.93286000       0.59088000
    66  C          0.89224000       0.06714000       0.40912000
    67  C         -0.00996000       0.78006000       0.27648000
    68  C          0.00996000       0.21994000       0.72352000
    69  C          0.61777000       0.24884000       0.94988000
    70  C          0.38223000       0.75116000       0.05012000
    71  C          0.85191000       0.61623000       0.04467000
    72  C          0.14809000       0.38377000       0.95533000
    73  C          0.72808900       0.55064000       0.98667000
    74  C          0.27191100       0.44936000       0.01333000
    75  H          0.62455200       0.57173100       0.98286800
    76  H          0.37544800       0.42826900       0.01713200
    77  H          0.69467300       0.48488200       0.98903200
    78  H          0.30532700       0.51511800       0.01096800
    79  H          0.78531200       0.55317900       0.95091100
    80  H          0.21468800       0.44682100       0.04908900
    81  H          0.47860000       0.04830000       0.56980000
    82  H          0.52140000       0.95170000       0.43020000
    83  H          0.19660000       0.83370000       0.38680000
    84  H          0.80340000       0.16630000       0.61320000
    85  H          0.13960000       0.92460000       0.38280000
    86  H          0.86040000       0.07540000       0.61720000
    87  H          0.53160000       0.11230000       0.67980000
    88  H          0.46840000       0.88770000       0.32020000
    89  H          0.75350000       0.73170000       0.22358400
    90  H          0.24650000       0.26830000       0.77641600
    91  H          0.80950000       0.64470000       0.23228200
    92  H          0.19050000       0.35530000       0.76771800
    93  H          0.90150000       0.72470000       0.34498100
    94  H          0.09850000       0.27530000       0.65501900
    95  H          0.85040000       0.80870000       0.34558100
    96  H          0.14960000       0.19130000       0.65441900
    97  H          0.23670000       0.13640000       0.96080000
    98  H          0.76330000       0.86360000       0.03920000
    99  H          0.95450000       0.75870000       0.15280000
   100  H          0.04550000       0.24130000       0.84720000
   101  H          0.00260000       0.66670000       0.16080000
   102  H         -0.00260000       0.33330000       0.83920000
   103  H          0.96050000       0.90170000       0.46358200
   104  H          0.03950000       0.09830000       0.53641800
   105  H          0.03450000       0.81470000       0.46488100
   106  H          0.96550000       0.18530000       0.53511900
   107  H          0.06060000       0.94870000       0.67780000
   108  H          0.93940000       0.05130000       0.32220000
   109  H          0.70260000       0.23830000       0.86880000
   110  H          0.29740000       0.76170000       0.13120000
   111  H          0.66840000       0.64670000       0.10208200
   112  H          0.33160000       0.35330000       0.89791800
   113  H          0.73440000       0.57060000       0.10880000
   114  H          0.26560000       0.42940000       0.89120000
   115  H          0.01150000       0.88870000       0.56908300
   116  H         -0.01150000       0.11130000       0.43091700
   117  H          0.07960000       0.76070000       0.27280000
   118  H          0.92040000       0.23930000       0.72720000
   119  H          0.01450000       0.84070000       0.26808100
   120  H         -0.01450000       0.15930000       0.73191900
   121  H          0.72960000       0.28930000       0.97480000
   122  H          0.27040000       0.71070000       0.02520000
   123  H          0.88620000       0.67350000       0.03470000
   124  H          0.11380000       0.32650000       0.96530000
   125  H          0.91350000       0.56870000       0.03388100
   126  H          0.08650000       0.43130000       0.96611900
   127  O          0.07504000       0.89043000       0.01422140
   128  O          0.92496000       0.10957000       0.98577860
   129  N          0.80176000       0.58543000       0.53381180
   130  N          0.19824000       0.41457000       0.46618820
   131  N          0.87535000       0.68983000       0.73008180
   132  N          0.12465000       0.31017000       0.26991820
   133  N          0.00685000       0.75663000       0.75646190
   134  N         -0.00685000       0.24337000       0.24353810
   135  C          0.86016000       0.65733000       0.66303190
   136  C          0.13984000       0.34267000       0.33696810
   137  C          0.01915000       0.78813000       0.82252000
   138  C         -0.01915000       0.21187000       0.17748000
   139  C          0.06666000       0.86003000       0.95152000
   140  C          0.93334000       0.13997000       0.04848000
   141  C          0.18556000       0.98414000       0.11852000
   142  C          0.81444000       0.01586000       0.88148000
   143  C          0.91646000       0.78544000       0.91892000
   144  C          0.08354000       0.21456000       0.08108000
   145  C          0.94868000       0.65424000       0.56543000
   146  C          0.05132000       0.34576000       0.43457000
   147  C          0.22296000       0.96584000       0.05322000
   148  C          0.77704000       0.03416000       0.94678000
   149  C          0.89267000       0.75024000       0.85562000
   150  C          0.10733000       0.24976000       0.14438000
   151  C         -0.01303000       0.69294000       0.62932000
   152  C          0.01303000       0.30706000       0.37068000
   153  C          0.16866000       0.86214000       0.85472000
   154  C          0.83134000       0.13786000       0.14528000
   155  C          0.19536000       0.89794000       0.91982000
   156  C          0.80464000       0.10206000       0.08018000
   157  C          0.33436000       0.05734000       0.16852000
   158  C          0.66564000       0.94266000       0.83148000
   159  C          0.28856000       0.06844000       0.23322000
   160  C          0.71144000       0.93156000       0.76678000
   161  C          0.70857000       0.58614000       0.63182000
   162  C          0.29143000       0.41386000       0.36818000
   163  C          0.37158000       0.14674000       0.34962000
   164  C          0.62842000       0.85326000       0.65038000
   165  C          0.42727000       0.14044000       0.28642000
   166  C          0.57273000       0.85956000       0.71358000
   167  C          0.68568000       0.55305000       0.56812000
   168  C          0.31432000       0.44695000       0.43188000
   169  C          0.50669000       0.21005000       0.40473000
   170  C          0.49331000       0.78995000       0.59527000
   171  C          0.43901000       0.21176000       0.46843000
   172  C          0.56099000       0.78824000       0.53157000
   173  C          0.56861300       0.26996000       0.52334000
   174  C          0.43138700       0.73004000       0.47666000
   175  H          0.64930200       0.23462400       0.53073000
   176  H          0.35069800       0.76537600       0.46927000
   177  H          0.51013400       0.28390400       0.55883400
   178  H          0.48986600       0.71609600       0.44116600
   179  H          0.63273300       0.33010900       0.51673400
   180  H          0.36726700       0.66989100       0.48326600
   181  H          0.16260000       0.91940000       0.12720000
   182  H          0.83740000       0.08060000       0.87280000
   183  H          0.07860000       0.00430000       0.12120000
   184  H          0.92140000      -0.00430000       0.87880000
   185  H          0.83360000       0.75730000       0.94320000
   186  H          0.16640000       0.24270000       0.05680000
   187  H          0.03160000       0.66830000       0.54320000
   188  H          0.96840000       0.33170000       0.45680000
   189  H          0.24460000       0.02540000       0.04020000
   190  H          0.75540000       0.97460000       0.95980000
   191  H          0.32360000       0.94430000       0.05120000
   192  H          0.67640000       0.05570000       0.94880000
   193  H          0.79660000       0.70040000       0.83720000
   194  H          0.20340000       0.29960000       0.16280000
   195  H          0.09490000       0.74550000       0.65430000
   196  H          0.90510000       0.25450000       0.34570000
   197  H          0.25880000       0.88940000       0.83330000
   198  H          0.74120000       0.11060000       0.16670000
   199  H          0.29780000       0.94840000       0.94330000
   200  H          0.70220000       0.05160000       0.05670000
   201  H          0.43260000       0.03330000       0.17020000
   202  H          0.56740000       0.96670000       0.82980000
   203  H          0.37160000       0.12340000       0.16120000
   204  H          0.62840000       0.87660000       0.83880000
   205  H          0.26960000       0.00340000       0.24020000
   206  H          0.73040000      -0.00340000       0.75980000
   207  H          0.17170000       0.08940000       0.23420000
   208  H          0.82830000       0.91060000       0.76580000
   209  H          0.62960000       0.56230000       0.65520000
   210  H          0.37040000       0.43770000       0.34480000
   211  H          0.26280000       0.16940000       0.34930000
   212  H          0.73720000       0.83060000       0.65070000
   213  H          0.33970000       0.07350000       0.35030000
   214  H          0.66030000       0.92650000       0.64970000
   215  H          0.53870000       0.12630000       0.28720000
   216  H          0.46130000       0.87370000       0.71280000
   217  H          0.45160000       0.20540000       0.28020000
   218  H          0.54840000       0.79460000       0.71980000
   219  H          0.58970000       0.50340000       0.54630000
   220  H          0.41030000       0.49660000       0.45370000
   221  H          0.54360000       0.27540000       0.40420000
   222  H          0.45640000       0.72460000       0.59580000
   223  H          0.60670000       0.18340000       0.40320000
   224  H          0.39330000       0.81660000       0.59680000
   225  H          0.33790000       0.23150000       0.46830000
   226  H          0.66210000       0.76850000       0.53170000
   227  H          0.38890000       0.14050000       0.46430000
   228  H          0.61110000       0.85950000       0.53570000
