data_GUMCEW
_symmetry_space_group_name_H-M    'P1'
_symmetry_Int_Tables_number       1
loop_
_symmetry_equiv_pos_site_id
_symmetry_equiv_pos_as_xyz
1 x,y,z
_cell_length_a                   8.6905
_cell_length_b                   22.162
_cell_length_c                   6.7256
_cell_angle_alpha                92.078
_cell_angle_beta                 90.518
_cell_angle_gamma                91.415
loop_
_atom_site_label
_atom_site_type_symbol
_atom_site_fract_x
_atom_site_fract_y
_atom_site_fract_z
     1  Cl         0.24324000       0.30751000       0.28245000
     2  Cl         0.75676000       0.69249000       0.71755000
     3  Cl         0.82156000       0.12502000       0.26956000
     4  Cl         0.17844000       0.87498000       0.73044000
     5  Cl         0.51043000       0.21372000       0.26865000
     6  Cl         0.48957000       0.78628000       0.73135000
     7  Cl         0.09274000       0.03081000       0.25556000
     8  Cl         0.90726000       0.96919000       0.74444000
     9  O          0.94102000       0.24924000       0.27810000
    10  O          0.05898000       0.75076000       0.72190000
    11  O          0.39108000       0.09023000       0.25610000
    12  O          0.60892000       0.90977000       0.74390000
    13  C          0.04410000       0.21186000       0.27520000
    14  C          0.95590000       0.78814000       0.72480000
    15  C          0.21110000       0.23334000       0.27410000
    16  C          0.78890000       0.76666000       0.72590000
    17  C          0.01410000       0.14705000       0.26820000
    18  C         -0.01410000       0.85295000       0.73180000
    19  C          0.32210000       0.18945000       0.26820000
    20  C          0.67790000       0.81055000       0.73180000
    21  C          0.12810000       0.10625000       0.26420000
    22  C          0.87190000       0.89375000       0.73580000
    23  C          0.29710000       0.12585000       0.26320000
    24  C          0.70290000       0.87415000       0.73680000
    25  O          0.22898000       0.77237000       0.20610000
    26  O          0.77102000       0.22763000       0.79390000
    27  O          0.81308000       0.63657000       0.20910000
    28  O          0.18692000       0.36343000       0.79090000
    29  N          0.58249000       0.91426000       0.23910000
    30  N          0.41751000       0.08574000       0.76090000
    31  N          0.15259000       0.72286000       0.20710000
    32  N          0.84741000       0.27714000       0.79290000
    33  N          0.95079000       0.66036000       0.20910000
    34  N          0.04921000       0.33964000       0.79090000
    35  C          0.63810000       0.97505000       0.24720000
    36  C          0.36190000       0.02495000       0.75280000
    37  C          0.41810000       0.90415000       0.24120000
    38  C          0.58190000       0.09585000       0.75880000
    39  C          0.67510000       0.86635000       0.23710000
    40  C          0.32490000       0.13365000       0.76290000
    41  C          0.83710000       0.87596000       0.23210000
    42  C          0.16290000       0.12404000       0.76790000
    43  C          0.62610000       0.80726000       0.23320000
    44  C          0.37390000       0.19274000       0.76680000
    45  C          0.93610000       0.82806000       0.22610000
    46  C          0.06390000       0.17194000       0.77390000
    47  C          0.72210000       0.75916000       0.22210000
    48  C          0.27790000       0.24084000       0.77790000
    49  C          0.88510000       0.76916000       0.22210000
    50  C          0.11490000       0.23084000       0.77790000
    51  C         -0.00690000       0.71896000       0.21610000
    52  C          0.00690000       0.28104000       0.78390000
    53  C          0.22610000       0.66296000       0.21620000
    54  C          0.77390000       0.33704000       0.78380000
    55  C          0.08710000       0.61735000       0.18820000
    56  C          0.91290000       0.38265000       0.81180000
    57  C          0.29920000       0.66153000       0.41620000
    58  C          0.70080000       0.33847000       0.58380000
    59  C          0.34310000       0.65914000       0.05120000
    60  C          0.65690000       0.34086000       0.94880000
    61  C          0.07310000       0.56893000       0.32230000
    62  C          0.92690000       0.43107000       0.67770000
    63  C          0.07210000       0.59444000       0.96780000
    64  C          0.92790000       0.40556000       0.03220000
    65  H          0.74600000       0.97640000       0.24400000
    66  H          0.25400000       0.02360000       0.75600000
    67  H          0.59730000      -0.00440000       0.13630000
    68  H          0.40270000       0.00440000       0.86370000
    69  H          0.60310000      -0.00520000       0.36680000
    70  H          0.39690000       0.00520000       0.63320000
    71  H          0.36820000       0.94170000       0.24410000
    72  H          0.63180000       0.05830000       0.75590000
    73  H          0.38690000       0.88110000       0.12530000
    74  H          0.61310000       0.11890000       0.87470000
    75  H          0.39080000       0.88250000       0.35610000
    76  H          0.60920000       0.11750000       0.64390000
    77  H          0.87810000       0.91610000       0.23300000
    78  H          0.12190000       0.08390000       0.76700000
    79  H          0.51820000       0.79890000       0.23850000
    80  H          0.48180000       0.20110000       0.76150000
    81  H          0.04380000       0.83670000       0.22690000
    82  H          0.95620000       0.16330000       0.77310000
    83  H          0.68080000       0.71930000       0.21550000
    84  H          0.31920000       0.28070000       0.78450000
    85  H          0.34810000       0.62410000       0.43100000
    86  H          0.65190000       0.37590000       0.56900000
    87  H          0.37310000       0.69370000       0.43270000
    88  H          0.62690000       0.30630000       0.56730000
    89  H          0.22240000       0.66600000       0.51640000
    90  H          0.77760000       0.33400000       0.48360000
    91  H          0.39150000       0.62160000       0.05090000
    92  H          0.60850000       0.37840000       0.94910000
    93  H          0.29120000       0.66320000       0.92500000
    94  H          0.70880000       0.33680000       0.07500000
    95  H          0.41710000       0.69120000       0.06750000
    96  H          0.58290000       0.30880000       0.93250000
    97  H          0.07150000       0.58460000       0.45520000
    98  H          0.92850000       0.41540000       0.54480000
    99  H          0.97890000       0.54660000       0.29490000
   100  H          0.02110000       0.45340000       0.70510000
   101  H          0.15670000       0.54260000       0.30560000
   102  H          0.84330000       0.45740000       0.69440000
   103  H          0.97440000       0.57450000       0.94790000
   104  H          0.02560000       0.42550000       0.05210000
   105  H          0.08040000       0.62750000       0.88340000
   106  H          0.91960000       0.37250000       0.11660000
   107  H          0.15110000       0.56680000       0.93950000
   108  H          0.84890000       0.43320000       0.06050000
   109  C          0.38910000       0.45826000       0.50930000
   110  C          0.61090000       0.54174000       0.49070000
   111  C          0.43420000       0.49046000       0.67520000
   112  C          0.56580000       0.50954000       0.32480000
   113  C          0.45620000       0.46687000       0.33030000
   114  C          0.54380000       0.53313000       0.66970000
   115  H          0.30750000       0.42920000       0.51700000
   116  H          0.69250000       0.57080000       0.48300000
   117  H          0.38690000       0.48210000       0.79830000
   118  H          0.61310000       0.51790000       0.20170000
   119  H          0.42710000       0.44280000       0.21530000
   120  H          0.57290000       0.55720000       0.78470000
