data_GURHIM
_symmetry_space_group_name_H-M    'P1'
_symmetry_Int_Tables_number       1
loop_
_symmetry_equiv_pos_site_id
_symmetry_equiv_pos_as_xyz
1 x,y,z
_cell_length_a                   15.10484
_cell_length_b                   15.10484
_cell_length_c                   12.21446
_cell_angle_alpha                90.0
_cell_angle_beta                 90.0
_cell_angle_gamma                120.0
loop_
_atom_site_label
_atom_site_type_symbol
_atom_site_fract_x
_atom_site_fract_y
_atom_site_fract_z
     1  Cl         0.22360700       0.08978700       0.48181600
     2  Cl         0.91021300       0.13382000       0.48181600
     3  Cl         0.86618000       0.77639300       0.48181600
     4  Cl         0.89027367       0.42312033       0.81514933
     5  Cl         0.57687967       0.46715333       0.81514933
     6  Cl         0.53284667       0.10972633       0.81514933
     7  Cl         0.55694033       0.75645367       0.14848267
     8  Cl         0.24354633       0.80048667       0.14848267
     9  Cl         0.19951333       0.44305967       0.14848267
    10  C          0.22042000       0.19595190       0.82632000
    11  C          0.80404810       0.02446810       0.82632000
    12  C          0.97553190       0.77958000       0.82632000
    13  C          0.88708667       0.52928523       0.15965333
    14  C          0.47071477       0.35780143       0.15965333
    15  C          0.64219857       0.11291333       0.15965333
    16  C          0.55375333       0.86261857       0.49298667
    17  C          0.13738143       0.69113477       0.49298667
    18  C          0.30886523       0.44624667       0.49298667
    19  C          0.30042000       0.14792000       0.68622000
    20  C          0.85208000       0.15250000       0.68622000
    21  C          0.84750000       0.69958000       0.68622000
    22  C          0.96708667       0.48125333       0.01955333
    23  C          0.51874667       0.48583333       0.01955333
    24  C          0.51416667       0.03291333       0.01955333
    25  C          0.63375333       0.81458667       0.35288667
    26  C          0.18541333       0.81916667       0.35288667
    27  C          0.18083333       0.36624667       0.35288667
    28  H          0.35360000       0.13800000       0.66350000
    29  H          0.86200000       0.21560000       0.66350000
    30  H          0.78440000       0.64640000       0.66350000
    31  H          0.02026667       0.47133333      -0.00316667
    32  H          0.52866667       0.54893333      -0.00316667
    33  H          0.45106667       0.97973333      -0.00316667
    34  H          0.68693333       0.80466667       0.33016667
    35  H          0.19533333       0.88226667       0.33016667
    36  H          0.11773333       0.31306667       0.33016667
    37  C          0.10272000       0.07942000       0.20482000
    38  C          0.92058000       0.02330000       0.20482000
    39  C          0.97670000       0.89728000       0.20482000
    40  C          0.76938667       0.41275333       0.53815333
    41  C          0.58724667       0.35663333       0.53815333
    42  C          0.64336667       0.23061333       0.53815333
    43  C          0.43605333       0.74608667       0.87148667
    44  C          0.25391333       0.68996667       0.87148667
    45  C          0.31003333       0.56394667       0.87148667
    46  H          0.14690000       0.04990000       0.20800000
    47  H          0.95010000       0.09700000       0.20800000
    48  H          0.90300000       0.85310000       0.20800000
    49  H          0.81356667       0.38323333       0.54133333
    50  H          0.61676667       0.43033333       0.54133333
    51  H          0.56966667       0.18643333       0.54133333
    52  H          0.48023333       0.71656667       0.87466667
    53  H          0.28343333       0.76366667       0.87466667
    54  H          0.23633333       0.51976667       0.87466667
    55  H          0.09870000       0.10220000       0.27790000
    56  H          0.89780000      -0.00350000       0.27790000
    57  H          0.00350000       0.90130000       0.27790000
    58  H          0.76536667       0.43553333       0.61123333
    59  H          0.56446667       0.32983333       0.61123333
    60  H          0.67016667       0.23463333       0.61123333
    61  H          0.43203333       0.76886667       0.94456667
    62  H          0.23113333       0.66316667       0.94456667
    63  H          0.33683333       0.56796667       0.94456667
    64  C          0.21792000       0.23002000       0.94202000
    65  C          0.76998000       0.98790000       0.94202000
    66  C          0.01210000       0.78208000       0.94202000
    67  C          0.88458667       0.56335333       0.27535333
    68  C          0.43664667       0.32123333       0.27535333
    69  C          0.67876667       0.11541333       0.27535333
    70  C          0.55125333       0.89668667       0.60868667
    71  C          0.10331333       0.65456667       0.60868667
    72  C          0.34543333       0.44874667       0.60868667
    73  H          0.28720000       0.27530000       0.96690000
    74  H          0.72470000       0.01190000       0.96690000
    75  H         -0.01190000       0.71280000       0.96690000
    76  H          0.95386667       0.60863333       0.30023333
    77  H          0.39136667       0.34523333       0.30023333
    78  H          0.65476667       0.04613333       0.30023333
    79  H          0.62053333       0.94196667       0.63356667
    80  H          0.05803333       0.67856667       0.63356667
    81  H          0.32143333       0.37946667       0.63356667
    82  H          0.18160000       0.26790000       0.94300000
    83  H          0.73210000       0.91370000       0.94300000
    84  H          0.08630000       0.81840000       0.94300000
    85  H          0.84826667       0.60123333       0.27633333
    86  H          0.39876667       0.24703333       0.27633333
    87  H          0.75296667       0.15173333       0.27633333
    88  H          0.51493333       0.93456667       0.60966667
    89  H          0.06543333       0.58036667       0.60966667
    90  H          0.41963333       0.48506667       0.60966667
    91  C          0.14272000       0.17742000       0.75472000
    92  C          0.82258000       0.96530000       0.75472000
    93  C          0.03470000       0.85728000       0.75472000
    94  C          0.80938667       0.51075333       0.08805333
    95  C          0.48924667       0.29863333       0.08805333
    96  C          0.70136667       0.19061333       0.08805333
    97  C          0.47605333       0.84408667       0.42138667
    98  C          0.15591333       0.63196667       0.42138667
    99  C          0.36803333       0.52394667       0.42138667
   100  H          0.08930000       0.18670000       0.77760000
   101  H          0.81330000       0.90260000       0.77760000
   102  H          0.09740000       0.91070000       0.77760000
   103  H          0.75596667       0.52003333       0.11093333
   104  H          0.47996667       0.23593333       0.11093333
   105  H          0.76406667       0.24403333       0.11093333
   106  H          0.42263333       0.85336667       0.44426667
   107  H          0.14663333       0.56926667       0.44426667
   108  H          0.43073333       0.57736667       0.44426667
   109  C          0.14342000       0.14472000       0.64823000
   110  C          0.85528000      -0.00130000       0.64823000
   111  C          0.00130000       0.85658000       0.64823000
   112  C          0.81008667       0.47805333       0.98156333
   113  C          0.52194667       0.33203333       0.98156333
   114  C          0.66796667       0.18991333       0.98156333
   115  C          0.47675333       0.81138667       0.31489667
   116  C          0.18861333       0.66536667       0.31489667
   117  C          0.33463333       0.52324667       0.31489667
   118  H          0.09100000       0.13260000       0.59980000
   119  H          0.86740000       0.95840000       0.59980000
   120  H          0.04160000       0.90900000       0.59980000
   121  H          0.75766667       0.46593333       0.93313333
   122  H          0.53406667       0.29173333       0.93313333
   123  H          0.70826667       0.24233333       0.93313333
   124  H          0.42433333       0.79926667       0.26646667
   125  H          0.20073333       0.62506667       0.26646667
   126  H          0.37493333       0.57566667       0.26646667
   127  C          0.22272000       0.13042000       0.61552000
   128  C          0.86958000       0.09230000       0.61552000
   129  C          0.90770000       0.77728000       0.61552000
   130  C          0.88938667       0.46375333       0.94885333
   131  C          0.53624667       0.42563333       0.94885333
   132  C          0.57436667       0.11061333       0.94885333
   133  C          0.55605333       0.79708667       0.28218667
   134  C          0.20291333       0.75896667       0.28218667
   135  C          0.24103333       0.44394667       0.28218667
   136  C          0.14962000       0.17042000       0.12892000
   137  C          0.82958000       0.97920000       0.12892000
   138  C          0.02080000       0.85038000       0.12892000
   139  C          0.81628667       0.50375333       0.46225333
   140  C          0.49624667       0.31253333       0.46225333
   141  C          0.68746667       0.18371333       0.46225333
   142  C          0.48295333       0.83708667       0.79558667
   143  C          0.16291333       0.64586667       0.79558667
   144  C          0.35413333       0.51704667       0.79558667
   145  H          0.10460000       0.19880000       0.12340000
   146  H          0.80120000       0.90580000       0.12340000
   147  H          0.09420000       0.89540000       0.12340000
   148  H          0.77126667       0.53213333       0.45673333
   149  H          0.46786667       0.23913333       0.45673333
   150  H          0.76086667       0.22873333       0.45673333
   151  H          0.43793333       0.86546667       0.79006667
   152  H          0.13453333       0.57246667       0.79006667
   153  H          0.42753333       0.56206667       0.79006667
   154  H          0.21430000       0.22270000       0.15890000
   155  H          0.77730000      -0.00840000       0.15890000
   156  H          0.00840000       0.78570000       0.15890000
   157  H          0.88096667       0.55603333       0.49223333
   158  H          0.44396667       0.32493333       0.49223333
   159  H          0.67506667       0.11903333       0.49223333
   160  H          0.54763333       0.88936667       0.82556667
   161  H          0.11063333       0.65826667       0.82556667
   162  H          0.34173333       0.45236667       0.82556667
   163  C          0.29872000       0.18012000       0.79112000
   164  C          0.81988000       0.11860000       0.79112000
   165  C          0.88140000       0.70128000       0.79112000
   166  C          0.96538667       0.51345333       0.12445333
   167  C          0.48654667       0.45193333       0.12445333
   168  C          0.54806667       0.03461333       0.12445333
   169  C          0.63205333       0.84678667       0.45778667
   170  C          0.15321333       0.78526667       0.45778667
   171  C          0.21473333       0.36794667       0.45778667
   172  H          0.35100000       0.19150000       0.83930000
   173  H          0.80850000       0.15950000       0.83930000
   174  H          0.84050000       0.64900000       0.83930000
   175  H          0.01766667       0.52483333       0.17263333
   176  H          0.47516667       0.49283333       0.17263333
   177  H          0.50716667       0.98233333       0.17263333
   178  H          0.68433333       0.85816667       0.50596667
   179  H          0.14183333       0.82616667       0.50596667
   180  H          0.17383333       0.31566667       0.50596667
   181  N          0.16672160       0.14125170       0.01758160
   182  N          0.85874830       0.02546990       0.01758160
   183  N          0.97453010       0.83327840       0.01758160
   184  N          0.83338827       0.47458503       0.35091493
   185  N          0.52541497       0.35880323       0.35091493
   186  N          0.64119677       0.16661173       0.35091493
   187  N          0.50005493       0.80791837       0.68424827
   188  N          0.19208163       0.69213657       0.68424827
   189  N          0.30786343       0.49994507       0.68424827
   190  H          0.20540000       0.11150000       0.02350000
   191  H          0.88850000       0.09390000       0.02350000
   192  H          0.90610000       0.79460000       0.02350000
   193  H          0.87206667       0.44483333       0.35683333
   194  H          0.55516667       0.42723333       0.35683333
   195  H          0.57276667       0.12793333       0.35683333
   196  H          0.53873333       0.77816667       0.69016667
   197  H          0.22183333       0.76056667       0.69016667
   198  H          0.23943333       0.46126667       0.69016667
   199  H          0.10610000       0.09500000      -0.01120000
   200  H          0.90500000       0.01110000      -0.01120000
   201  H         -0.01110000       0.89390000      -0.01120000
   202  H          0.77276667       0.42833333       0.32213333
   203  H          0.57166667       0.34443333       0.32213333
   204  H          0.65556667       0.22723333       0.32213333
   205  H          0.43943333       0.76166667       0.65546667
   206  H          0.23833333       0.67776667       0.65546667
   207  H          0.32223333       0.56056667       0.65546667
   208  N          0.00000000       0.00000000       0.17043000
   209  N          0.66666667       0.33333333       0.50376333
   210  N          0.33333333       0.66666667       0.83709667
   211  F          0.00000000       0.00000000       0.92396180
   212  F          0.66666667       0.33333333       0.25729513
   213  F          0.33333333       0.66666667       0.59062847
   214  F          0.08224170       0.35242000       0.90577190
   215  F          0.64758000       0.72982170       0.90577190
   216  F          0.27017830       0.91775830       0.90577190
   217  F          0.74890837       0.68575333       0.23910523
   218  F          0.31424667       0.06315503       0.23910523
   219  F          0.93684497       0.25109163       0.23910523
   220  F          0.41557503       0.01908667       0.57243857
   221  F          0.98091333       0.39648837       0.57243857
   222  F          0.60351163       0.58442497       0.57243857
   223  F          0.10421140       0.38437180       0.70309170
   224  F          0.61562820       0.71983960       0.70309170
   225  F          0.28016040       0.89578860       0.70309170
   226  F          0.77087807       0.71770513       0.03642503
   227  F          0.28229487       0.05317293       0.03642503
   228  F          0.94682707       0.22912193       0.03642503
   229  F          0.43754473       0.05103847       0.36975837
   230  F          0.94896153       0.38650627       0.36975837
   231  F          0.61349373       0.56245527       0.36975837
