data_GUTNOY
_symmetry_space_group_name_H-M    'P1'
_symmetry_Int_Tables_number       1
loop_
_symmetry_equiv_pos_site_id
_symmetry_equiv_pos_as_xyz
1 x,y,z
_cell_length_a                   5.365611
_cell_length_b                   22.9955
_cell_length_c                   7.998416
_cell_angle_alpha                90.0
_cell_angle_beta                 90.793
_cell_angle_gamma                90.0
loop_
_atom_site_label
_atom_site_type_symbol
_atom_site_fract_x
_atom_site_fract_y
_atom_site_fract_z
     1  O          0.35632000       0.46615400       0.88820870
     2  O          0.64368000       0.96615400       0.61179130
     3  O          0.64368000       0.53384600       0.11179130
     4  O          0.35632000       0.03384600       0.38820870
     5  C          0.34363000       0.45795700       0.06518190
     6  C          0.65637000       0.95795700       0.43481810
     7  C          0.65637000       0.54204300       0.93481810
     8  C          0.34363000       0.04204300       0.56518190
     9  H          0.30770000       0.41750000       0.08890000
    10  H          0.69230000       0.91750000       0.41110000
    11  H          0.69230000       0.58250000       0.91110000
    12  H          0.30770000       0.08250000       0.58890000
    13  H          0.20910000       0.48130000       0.10920000
    14  H          0.79090000       0.98130000       0.39080000
    15  H          0.79090000       0.51870000       0.89080000
    16  H          0.20910000       0.01870000       0.60920000
    17  C          0.41813000       0.52529700       0.85098000
    18  C          0.58187000       0.02529700       0.64902000
    19  C          0.58187000       0.47470300       0.14902000
    20  C          0.41813000       0.97470300       0.35098000
    21  H          0.28560000       0.55070000       0.88850000
    22  H          0.71440000       0.05070000       0.61150000
    23  H          0.71440000       0.44930000       0.11150000
    24  H          0.28560000       0.94930000       0.38850000
    25  H          0.43320000       0.53000000       0.73100000
    26  H          0.56680000       0.03000000       0.76900000
    27  H          0.56680000       0.47000000       0.26900000
    28  H          0.43320000       0.97000000       0.23100000
    29  C          0.21513000       0.31451800       0.37898000
    30  C          0.78487000       0.81451800       0.12102000
    31  C          0.78487000       0.68548200       0.62102000
    32  C          0.21513000       0.18548200       0.87898000
    33  H          0.35460000       0.32230000       0.31510000
    34  H          0.64540000       0.82230000       0.18490000
    35  H          0.64540000       0.67770000       0.68490000
    36  H          0.35460000       0.17770000       0.81510000
    37  C          0.73853000       0.39727700       0.62426810
    38  C          0.26147000       0.89727700       0.87573190
    39  C          0.26147000       0.60272300       0.37573190
    40  C          0.73853000       0.10272300       0.12426810
    41  O          0.55162000       0.38110500       0.71820860
    42  O          0.44838000       0.88110500       0.78179140
    43  O          0.44838000       0.61889500       0.28179140
    44  O          0.55162000       0.11889500       0.21820860
    45  C          0.79843000       0.29155600       0.56704840
    46  C          0.20157000       0.79155600       0.93295160
    47  C          0.20157000       0.70844400       0.43295160
    48  C          0.79843000       0.20844400       0.06704840
    49  H          0.65810000       0.28320000       0.62960000
    50  H          0.34190000       0.78320000       0.87040000
    51  H          0.34190000       0.71680000       0.37040000
    52  H          0.65810000       0.21680000       0.12960000
    53  C          0.87303000       0.34894600       0.54533830
    54  C          0.12697000       0.84894600       0.95466170
    55  C          0.12697000       0.65105400       0.45466170
    56  C          0.87303000       0.15105400       0.04533830
    57  O          0.16743000       0.41417600       0.42211830
    58  O          0.83257000       0.91417600       0.07788170
    59  O          0.83257000       0.58582400       0.57788170
    60  O          0.16743000       0.08582400       0.92211830
    61  N          0.85393000       0.18760600       0.52261840
    62  N          0.14607000       0.68760600       0.97738160
    63  N          0.14607000       0.81239400       0.47738160
    64  N          0.85393000       0.31239400       0.02261840
    65  O         -0.01858000       0.14867500       0.46581840
    66  O          0.01858000       0.64867500       0.03418160
    67  O          0.01858000       0.85132500       0.53418160
    68  O         -0.01858000       0.35132500       0.96581840
    69  O          0.79833000       0.44804500       0.60413850
    70  O          0.20167000       0.94804500       0.89586150
    71  O          0.20167000       0.55195500       0.39586150
    72  O          0.79833000       0.05195500       0.10413850
    73  C          0.93193000       0.24742600       0.49621840
    74  C          0.06807000       0.74742600       0.00378160
    75  C          0.06807000       0.75257400       0.50378160
    76  C          0.93193000       0.25257400      -0.00378160
    77  C          0.14223000       0.25830800       0.40235820
    78  C          0.85777000       0.75830800       0.09764180
    79  C          0.85777000       0.74169200       0.59764180
    80  C          0.14223000       0.24169200       0.90235820
    81  H          0.23200000       0.22780000       0.35620000
    82  H          0.76800000       0.72780000       0.14380000
    83  H          0.76800000       0.77220000       0.64380000
    84  H          0.23200000       0.27220000       0.85620000
    85  C          0.08373000       0.36026700       0.44939810
    86  C          0.91627000       0.86026700       0.05060190
    87  C          0.91627000       0.63973300       0.55060190
    88  C          0.08373000       0.13973300       0.94939810
    89  O          0.66373000       0.17882500       0.60003810
    90  O          0.33627000       0.67882500       0.89996190
    91  O          0.33627000       0.82117500       0.39996190
    92  O          0.66373000       0.32117500       0.10003810
    93  H          0.48440000       0.41591000       0.76570000
    94  H          0.51560000       0.91591000       0.73430000
    95  H          0.51560000       0.58409000       0.23430000
    96  H          0.48440000       0.08409000       0.26570000
    97  H          0.05060000       0.43781300       0.48260000
    98  H          0.94940000       0.93781300       0.01740000
    99  H          0.94940000       0.56218700       0.51740000
   100  H          0.05060000       0.06218700      -0.01740000
