data_GUXTOL
_symmetry_space_group_name_H-M    'P1'
_symmetry_Int_Tables_number       1
loop_
_symmetry_equiv_pos_site_id
_symmetry_equiv_pos_as_xyz
1 x,y,z
_cell_length_a                   7.108512
_cell_length_b                   10.431917
_cell_length_c                   10.685417
_cell_angle_alpha                116.0972
_cell_angle_beta                 101.3872
_cell_angle_gamma                102.0112
loop_
_atom_site_label
_atom_site_type_symbol
_atom_site_fract_x
_atom_site_fract_y
_atom_site_fract_z
     1  S          0.15494800       0.38068600       0.48866600
     2  S          0.84505200       0.61931400       0.51133400
     3  O          0.86388000       0.06251180       0.18875160
     4  O          0.13612000       0.93748820       0.81124840
     5  S          0.91261100       0.03949600       0.31141600
     6  S          0.08738900       0.96050400       0.68858400
     7  O          0.96078000       0.90860840       0.29556180
     8  O          0.03922000       0.09139160       0.70443820
     9  O          0.32182000       0.68068150       0.61990170
    10  O          0.67818000       0.31931850       0.38009830
    11  N          0.73217000       0.04742000       0.37782000
    12  N          0.26783000       0.95258000       0.62218000
    13  H          0.69970000       0.12830000       0.40020000
    14  H          0.30030000       0.87170000       0.59980000
    15  H          0.72860000       0.01630000       0.43530000
    16  H          0.27140000      -0.01630000       0.56470000
    17  N          0.28473000       0.17892000       0.51532000
    18  N          0.71527000       0.82108000       0.48468000
    19  N          0.43773000       0.31477190       0.61574190
    20  N          0.56227000       0.68522810       0.38425810
    21  N          0.51773000       0.57498190       0.70798190
    22  N          0.48227000       0.42501810       0.29201810
    23  H          0.64630000       0.59020000       0.76620000
    24  H          0.35370000       0.40980000       0.23380000
    25  C          0.13143000       0.19712000       0.44462000
    26  C          0.86857000       0.80288000       0.55538000
    27  C          0.38853000       0.42822000       0.61332000
    28  C          0.61147000       0.57178000       0.38668000
    29  C          0.47483000       0.69652000       0.70902000
    30  C          0.52517000       0.30348000       0.29098000
    31  C          0.62413000       0.84782000       0.82732000
    32  C          0.37587000       0.15218000       0.17268000
    33  H          0.75727600       0.83768200       0.85712000
    34  H          0.24272400       0.16231800       0.14288000
    35  H          0.57680500       0.88632500       0.91258300
    36  H          0.42319500       0.11367500       0.08741700
    37  H          0.63622400       0.91852400       0.78976800
    38  H          0.36377600       0.08147600       0.21023200
    39  N          0.08773000       0.38816190       0.13945190
    40  N          0.91227000       0.61183810       0.86054810
    41  C          0.05933000       0.52292000       0.19622000
    42  C          0.94067000       0.47708000       0.80378000
    43  H          0.17036100       0.60893800       0.27272700
    44  H          0.82963900       0.39106200       0.72727300
    45  C          0.87993000       0.54412000       0.15052000
    46  C          0.12007000       0.45588000       0.84948000
    47  H          0.86909300       0.64243200       0.19578300
    48  H          0.13090700       0.35756800       0.80421700
    49  C          0.71413000       0.42192000       0.03832000
    50  C          0.28587000       0.57808000       0.96168000
    51  C          0.74213000       0.28142000       0.97938000
    52  C          0.25787000       0.71858000       0.02062000
    53  H          0.63344700       0.19348000       0.90292100
    54  H          0.36655300       0.80652000       0.09707900
    55  C          0.51963000       0.43562000       0.98068000
    56  C          0.48037000       0.56438000       0.01932000
    57  H          0.41160500       0.34439300       0.90931100
    58  H          0.58839500       0.65560700       0.09068900
    59  C          0.92823000       0.27012000       0.03242000
    60  C          0.07177000       0.72988000       0.96758000
    61  H          0.94324400       0.17302700      -0.00965400
    62  H          0.05675600       0.82697300       0.00965400
