data_GUXTUR
_symmetry_space_group_name_H-M    'P1'
_symmetry_Int_Tables_number       1
loop_
_symmetry_equiv_pos_site_id
_symmetry_equiv_pos_as_xyz
1 x,y,z
_cell_length_a                   6.9323
_cell_length_b                   10.3745
_cell_length_c                   10.8868
_cell_angle_alpha                115.75814
_cell_angle_beta                 98.88317
_cell_angle_gamma                103.32212
loop_
_atom_site_label
_atom_site_type_symbol
_atom_site_fract_x
_atom_site_fract_y
_atom_site_fract_z
     1  S          0.15341600       0.37958500       0.49345400
     2  S          0.84658400       0.62041500       0.50654600
     3  S          0.91849300       0.03286500       0.31414500
     4  S          0.08150700       0.96713500       0.68585500
     5  O          0.87708000       0.05009150       0.19027140
     6  O          0.12292000       0.94990850       0.80972860
     7  O          0.96668000       0.90301860       0.30619150
     8  O          0.03332000       0.09698140       0.69380850
     9  O          0.31097190       0.68292140       0.63256140
    10  O          0.68902810       0.31707860       0.36743860
    11  N          0.72658000       0.04396190       0.37819180
    12  N          0.27342000       0.95603810       0.62180820
    13  H          0.69470000       0.12530000       0.39220000
    14  H          0.30530000       0.87470000       0.60780000
    15  H          0.72870000       0.01930000       0.43820000
    16  H          0.27130000      -0.01930000       0.56180000
    17  N          0.29762000       0.17496160       0.50334160
    18  N          0.70238000       0.82503840       0.49665840
    19  N          0.44882000       0.31177160       0.60178160
    20  N          0.55118000       0.68822840       0.39821840
    21  N          0.51802000       0.57433160       0.70509150
    22  N          0.48198000       0.42566840       0.29490850
    23  H          0.64030000       0.59020000       0.76020000
    24  H          0.35970000       0.40980000       0.23980000
    25  C          0.13863000       0.19315190       0.44105180
    26  C          0.86137000       0.80684810       0.55894820
    27  C          0.39363000       0.42736190       0.60855180
    28  C          0.60637000       0.57263810       0.39144820
    29  C          0.46703000       0.69782000       0.71548190
    30  C          0.53297000       0.30218000       0.28451810
    31  C          0.61293000       0.84882000       0.83462000
    32  C          0.38707000       0.15118000       0.16538000
    33  H          0.56874800       0.87336800       0.92101400
    34  H          0.43125200       0.12663200       0.07898600
    35  H          0.61160500       0.92749900       0.80778000
    36  H          0.38839500       0.07250100       0.19222000
    37  H          0.75334300       0.84415000       0.85258500
    38  H          0.24665700       0.15585000       0.14741500
    39  N          0.08992000       0.38829160       0.14427150
    40  N          0.91008000       0.61170840       0.85572850
    41  C          0.05323000       0.52072000       0.19820180
    42  C          0.94677000       0.47928000       0.80179820
    43  H          0.15863000       0.60745000       0.27568800
    44  H          0.84137000       0.39255000       0.72431200
    45  C          0.87013000       0.53819190       0.14734180
    46  C          0.12987000       0.46180810       0.85265820
    47  H          0.85220400       0.63458600       0.18998200
    48  H          0.14779600       0.36541400       0.81001800
    49  C          0.71273000       0.41332190       0.03325180
    50  C          0.28727000       0.58667810       0.96674820
    51  C          0.75043000       0.27512000       0.97682810
    52  C          0.24957000       0.72488000       0.02317190
    53  H          0.64779200       0.18663900       0.89910100
    54  H          0.35220800       0.81336100       0.10089900
    55  C          0.93773000       0.26722000       0.03445190
    56  C          0.06227000       0.73278000       0.96554810
    57  H          0.95952900       0.17203200      -0.00539400
    58  H          0.04047100       0.82796800       0.00539400
    59  C          0.50973000       0.42157190       0.96852820
    60  C          0.49027000       0.57842810       0.03147180
    61  H          0.39583400       0.35359700       0.97948300
    62  H          0.60416600       0.64640300       0.02051700
    63  H          0.49039400       0.38205700       0.86513600
    64  H          0.50960600       0.61794300       0.13486400
