data_GUXVAZ
_symmetry_space_group_name_H-M    'P1'
_symmetry_Int_Tables_number       1
loop_
_symmetry_equiv_pos_site_id
_symmetry_equiv_pos_as_xyz
1 x,y,z
_cell_length_a                   7.4244
_cell_length_b                   8.6024
_cell_length_c                   16.5398
_cell_angle_alpha                82.40413
_cell_angle_beta                 78.5879
_cell_angle_gamma                78.59215
loop_
_atom_site_label
_atom_site_type_symbol
_atom_site_fract_x
_atom_site_fract_y
_atom_site_fract_z
     1  S          0.43357600       0.53282500       0.71033300
     2  S          0.56642400       0.46717500       0.28966700
     3  S          0.26770600       0.86419500       0.76572300
     4  S          0.73229400       0.13580500       0.23427700
     5  O          0.54142180       0.22886150       0.68452800
     6  O          0.45857820       0.77113850       0.31547200
     7  O          0.21894180       0.75591150       0.83712800
     8  O          0.78105820       0.24408850       0.16287200
     9  O          0.12352180       0.96371160       0.72664900
    10  O          0.87647820       0.03628840       0.27335100
    11  N          0.65277190       0.39206160       0.57562900
    12  N          0.34722810       0.60793840       0.42437100
    13  H          0.72095700       0.39954800       0.52574500
    14  H          0.27904300       0.60045200       0.47425500
    15  N          0.58122000       0.67058170       0.57093900
    16  N          0.41878000       0.32941830       0.42906100
    17  N          0.48472000       0.79256170       0.61822900
    18  N          0.51528000       0.20743830       0.38177100
    19  N          0.39872000       0.97033190       0.78824100
    20  N          0.60128000       0.02966810       0.21175900
    21  H          0.43630000       0.04130000       0.75161300
    22  H          0.56370000       0.95870000       0.24838700
    23  H          0.46630000       0.92320000       0.82751300
    24  H          0.53370000       0.07680000       0.17248700
    25  C          0.40422000       0.73782000       0.69049100
    26  C          0.59578000       0.26218000       0.30950900
    27  C          0.56652000       0.53042000       0.61127100
    28  C          0.43348000       0.46958000       0.38872900
    29  C          0.63642000       0.24452000       0.61467110
    30  C          0.36358000       0.75548000       0.38532890
    31  C          0.74263000       0.10692000       0.56777130
    32  C          0.25737000       0.89308000       0.43222870
    33  H          0.72013100       0.12506900       0.51057500
    34  H          0.27986900       0.87493100       0.48942500
    35  H          0.70069500       0.00842800       0.59442800
    36  H          0.29930500      -0.00842800       0.40557200
    37  H          0.87640700       0.09746400       0.56771500
    38  H          0.12359300       0.90253600       0.43228500
    39  N          0.89082000       0.43390170       0.42138900
    40  N          0.10918000       0.56609830       0.57861100
    41  N          0.60542000       0.83872190       0.91567100
    42  N          0.39458000       0.16127810       0.08432900
    43  C          0.89852000       0.58622000       0.39177110
    44  C          0.10148000       0.41378000       0.60822890
    45  H          0.83478600       0.66768800       0.42593800
    46  H          0.16521400       0.33231200       0.57406200
    47  C         -0.00528000       0.63062000       0.31395100
    48  C          0.00528000       0.36938000       0.68604900
    49  H         -0.00312700       0.73999200       0.29620000
    50  H          0.00312700       0.26000800       0.70380000
    51  C          0.08852000       0.51342000       0.26171100
    52  C          0.91148000       0.48658000       0.73828900
    53  C          0.08172000       0.35512000       0.29265110
    54  C          0.91828000       0.64488000       0.70734890
    55  H          0.14443000       0.27107000       0.25996300
    56  H          0.85557000       0.72893000       0.74003700
    57  C          0.98282000       0.32142000       0.37124110
    58  C          0.01718000       0.67858000       0.62875890
    59  H          0.97973100       0.21289900       0.39089800
    60  H          0.02026900       0.78710100       0.60910200
    61  C          0.18762000       0.55452000       0.17477110
    62  C          0.81238000       0.44548000       0.82522890
    63  H          0.29467500       0.46819500       0.16003700
    64  H          0.70532500       0.53180500       0.83996300
    65  H          0.23747100       0.65364300       0.17321200
    66  H          0.76252900       0.34635700       0.82678800
    67  C          0.05852000       0.57772000       0.10975110
    68  C          0.94148000       0.42228000       0.89024890
    69  H          0.13374700       0.59101300       0.05358400
    70  H          0.86625300       0.40898700       0.94641600
    71  H          0.00240900       0.48112200       0.11356200
    72  H         -0.00240900       0.51887800       0.88643800
    73  C          0.90192000       0.72332000       0.12218110
    74  C          0.09808000       0.27668000       0.87781890
    75  H          0.81379000       0.70181600       0.17398700
    76  H          0.18621000       0.29818400       0.82601300
    77  H          0.95656000       0.81621800       0.12833700
    78  H          0.04344000       0.18378200       0.87166300
    79  C          0.79632000       0.76342000       0.05099110
    80  C          0.20368000       0.23658000       0.94900890
    81  C          0.87083000       0.84392000       0.97713890
    82  C          0.12917000       0.15608000       0.02286110
    83  H         -0.01080600       0.87451000       0.97124300
    84  H          0.01080600       0.12549000       0.02875700
    85  C          0.77203000       0.87942000       0.91225890
    86  C          0.22797000       0.12058000       0.08774110
    87  H          0.82519500       0.93552900       0.86275700
    88  H          0.17480500       0.06447100       0.13724300
    89  C          0.53483000       0.75933000       0.98640870
    90  C          0.46517000       0.24067000       0.01359130
    91  H          0.41717800       0.72837700       0.99020700
    92  H          0.58282200       0.27162300       0.00979300
    93  C          0.62403000       0.71993000       0.05412120
    94  C          0.37597000       0.28007000       0.94587880
    95  H          0.56774700       0.66318300       0.10272100
    96  H          0.43225300       0.33681700       0.89727900
