data_GUYZOS
_symmetry_space_group_name_H-M    'P1'
_symmetry_Int_Tables_number       1
loop_
_symmetry_equiv_pos_site_id
_symmetry_equiv_pos_as_xyz
1 x,y,z
_cell_length_a                   7.22673
_cell_length_b                   14.31766
_cell_length_c                   18.37467
_cell_angle_alpha                90.0
_cell_angle_beta                 92.505119
_cell_angle_gamma                90.0
loop_
_atom_site_label
_atom_site_type_symbol
_atom_site_fract_x
_atom_site_fract_y
_atom_site_fract_z
     1  H          0.12961200       0.67505000       0.39964000
     2  H          0.37038800       0.17505000       0.10036000
     3  H          0.87038800       0.32495000       0.60036000
     4  H          0.62961200       0.82495000       0.89964000
     5  H          0.05821200       0.56345000       0.18404000
     6  H          0.44178800       0.06345000       0.31596000
     7  H          0.94178800       0.43655000       0.81596000
     8  H          0.55821200       0.93655000       0.68404000
     9  H          0.09571300       0.69866000       0.26545000
    10  H          0.40428700       0.19866000       0.23455000
    11  H          0.90428700       0.30134000       0.73455000
    12  H          0.59571300       0.80134000       0.76545000
    13  H          0.12531200       0.51285000       0.44864000
    14  H          0.37468800       0.01285000       0.05136000
    15  H          0.87468800       0.48715000       0.55136000
    16  H          0.62531200       0.98715000       0.94864000
    17  H          0.10311300       0.27707000       0.46185000
    18  H          0.39688700       0.77707000       0.03815000
    19  H          0.89688700       0.72293000       0.53815000
    20  H          0.60311300       0.22293000       0.96185000
    21  O          0.89686600       0.33990300       0.21639200
    22  O          0.60313400       0.83990300       0.28360800
    23  O          0.10313400       0.66009700       0.78360800
    24  O          0.39686600       0.16009700       0.71639200
    25  O          0.08034800       0.34519300       0.44394200
    26  O          0.41965200       0.84519300       0.05605800
    27  O          0.91965200       0.65480700       0.55605800
    28  O          0.58034800       0.15480700       0.94394200
    29  O          0.14917700       0.28431300       0.33691200
    30  O          0.35082300       0.78431300       0.16308800
    31  O          0.85082300       0.71568700       0.66308800
    32  O          0.64917700       0.21568700       0.83691200
    33  O          0.17177800       0.36652300       0.17055200
    34  O          0.32822200       0.86652300       0.32944800
    35  O          0.82822200       0.63347700       0.82944800
    36  O          0.67177800       0.13347700       0.67055200
    37  C          0.09782800       0.44749400       0.34395300
    38  C          0.40217200       0.94749400       0.15604700
    39  C          0.90217200       0.55250600       0.65604700
    40  C          0.59782800       0.05250600       0.84395300
    41  C          0.05286100       0.38261400       0.21469300
    42  C          0.44713900       0.88261400       0.28530700
    43  C          0.94713900       0.61738600       0.78530700
    44  C          0.55286100       0.11738600       0.71469300
    45  C          0.11158900       0.35086400       0.37400300
    46  C          0.38841100       0.85086400       0.12599700
    47  C          0.88841100       0.64913600       0.62599700
    48  C          0.61158900       0.14913600       0.87400300
    49  C          0.09596110       0.62897500       0.28781400
    50  C          0.40403890       0.12897500       0.21218600
    51  C          0.90403890       0.37102500       0.71218600
    52  C          0.59596110       0.87102500       0.78781400
    53  C          0.07928800       0.46157400       0.26845300
    54  C          0.42071200       0.96157400       0.23154700
    55  C          0.92071200       0.53842600       0.73154700
    56  C          0.57928800       0.03842600       0.76845300
    57  C          0.11305100       0.52451500       0.39046400
    58  C          0.38694900       0.02451500       0.10953600
    59  C          0.88694900       0.47548500       0.60953600
    60  C          0.61305100       0.97548500       0.89046400
    61  C          0.11333100       0.61482500       0.36271400
    62  C          0.38666900       0.11482500       0.13728600
    63  C          0.88666900       0.38517500       0.63728600
    64  C          0.61333100       0.88517500       0.86271400
    65  C          0.07761110       0.55239400       0.24136400
    66  C          0.42238890       0.05239400       0.25863600
    67  C          0.92238890       0.44760600       0.75863600
    68  C          0.57761110       0.94760600       0.74136400
    69  H          0.19751300       0.02025000       0.63364000
    70  H          0.30248700       0.52025000       0.86636000
    71  H          0.80248700       0.97975000       0.36636000
    72  H          0.69751300       0.47975000       0.13364000
    73  H          0.11131300       0.18635000       0.60074000
    74  H          0.38868700       0.68635000       0.89926000
    75  H          0.88868700       0.81365000       0.39926000
    76  H          0.61131300       0.31365000       0.10074000
    77  H          0.20851400       0.14185000       0.38694000
    78  H          0.29148600       0.64185000       0.11306000
    79  H          0.79148600       0.85815000       0.61306000
    80  H          0.70851400       0.35815000       0.88694000
    81  H          0.33471400       0.84294000       0.44045000
    82  H          0.16528600       0.34294000       0.05955000
    83  H          0.66528600       0.15706000       0.55955000
    84  H          0.83471400       0.65706000       0.94045000
    85  H          0.28781300       0.97705000       0.40764000
    86  H          0.21218700       0.47705000       0.09236000
    87  H          0.71218700       0.02295000       0.59236000
    88  H          0.78781300       0.52295000       0.90764000
    89  H          0.36921300       0.75884000       0.50934000
    90  H          0.13078700       0.25884000       0.99066000
    91  H          0.63078700       0.24116000       0.49066000
    92  H          0.86921300       0.74116000       0.00934000
    93  O          0.29132800       0.86385700       0.60886200
    94  O          0.20867200       0.36385700       0.89113800
    95  O          0.70867200       0.13614300       0.39113800
    96  O          0.79132800       0.63614300       0.10886200
    97  N          0.15441700       0.16981300       0.49236300
    98  N          0.34558300       0.66981300       0.00763700
    99  N          0.84558300       0.83018700       0.50763700
   100  N          0.65441700       0.33018700       0.99236300
   101  N          0.33652100       0.82509600       0.49234400
   102  N          0.16347900       0.32509600       0.00765600
   103  N          0.66347900       0.17490400       0.50765600
   104  N          0.83652100       0.67490400       0.99234400
   105  C          0.29420900       0.88568600       0.54420300
   106  C          0.20579100       0.38568600       0.95579700
   107  C          0.70579100       0.11431400       0.45579700
   108  C          0.79420900       0.61431400       0.04420300
   109  C          0.19944100       0.04556400       0.57786400
   110  C          0.30055900       0.54556400       0.92213600
   111  C          0.80055900       0.95443600       0.42213600
   112  C          0.69944100       0.45443600       0.07786400
   113  C          0.24822800       0.98462600       0.52320300
   114  C          0.25177200       0.48462600       0.97679700
   115  C          0.75177200       0.01537400       0.47679700
   116  C          0.74822800       0.51537400       0.02320300
   117  C          0.15220100       0.13679400       0.56001400
   118  C          0.34779900       0.63679400       0.93998600
   119  C          0.84779900       0.86320600       0.43998600
   120  C          0.65220100       0.36320600       0.06001400
   121  C          0.25037100       0.01877500       0.45260400
   122  C          0.24962900       0.51877500       0.04739600
   123  C          0.74962900       0.98122500       0.54739600
   124  C          0.75037100       0.48122500       0.95260400
   125  C          0.20417100       0.11168500       0.43996400
   126  C          0.29582900       0.61168500       0.06003600
   127  C          0.79582900       0.88831500       0.56003600
   128  C          0.70417100       0.38831500       0.93996400
   129  H          0.87111200       0.03335000       0.02794000
   130  H          0.62888800       0.53335000       0.47206000
   131  H          0.12888800       0.96665000       0.97206000
   132  H          0.37111200       0.46665000       0.52794000
   133  H          0.93931400       0.13066000       0.28085000
   134  H          0.56068600       0.63066000       0.21915000
   135  H          0.06068600       0.86934000       0.71915000
   136  H          0.43931400       0.36934000       0.78085000
   137  H          0.87791200       0.20335000       0.06674000
   138  H          0.62208800       0.70335000       0.43326000
   139  H          0.12208800       0.79665000       0.93326000
   140  H          0.37791200       0.29665000       0.56674000
   141  H          0.94171400       0.96045000       0.25364000
   142  H          0.55828600       0.46045000       0.24636000
   143  H          0.05828600       0.03955000       0.74636000
   144  H          0.44171400       0.53955000       0.75364000
   145  H          0.82691300       0.75334000       0.14484000
   146  H          0.67308700       0.25334000       0.35516000
   147  H          0.17308700       0.24666000       0.85516000
   148  H          0.32691300       0.74666000       0.64484000
   149  H          0.77481400       0.84094000       0.20544000
   150  H          0.72518600       0.34094000       0.29456000
   151  H          0.22518600       0.15906000       0.79456000
   152  H          0.27481400       0.65906000       0.70544000
   153  H          0.90521200       0.24718000       0.19225000
   154  H          0.59478800       0.74718000       0.30775000
   155  H          0.09478800       0.75282000       0.80775000
   156  H          0.40521200       0.25282000       0.69225000
   157  O          0.94315800       0.86292700       0.05308200
   158  O          0.55684200       0.36292700       0.44691800
   159  O          0.05684200       0.13707300       0.94691800
   160  O          0.44315800       0.63707300       0.55308200
   161  N          0.83856100       0.82128600       0.16218400
   162  N          0.66143900       0.32128600       0.33781600
   163  N          0.16143900       0.17871400       0.83781600
   164  N          0.33856100       0.67871400       0.66218400
   165  N          0.90588800       0.17005400       0.17505300
   166  N          0.59411200       0.67005400       0.32494700
   167  N          0.09411200       0.82994600       0.82494700
   168  N          0.40588800       0.32994600       0.67505300
   169  C          0.89496900       0.88333600       0.11446300
   170  C          0.60503100       0.38333600       0.38553700
   171  C          0.10503100       0.11666400       0.88553700
   172  C          0.39496900       0.61666400       0.61446300
   173  C          0.88335900       0.05271400       0.08475400
   174  C          0.61664100       0.55271400       0.41524600
   175  C          0.11664100       0.94728600       0.91524600
   176  C          0.38335900       0.44728600       0.58475400
   177  C          0.89902800       0.98413600       0.13809300
   178  C          0.60097200       0.48413600       0.36190700
   179  C          0.10097200       0.01586400       0.86190700
   180  C          0.39902800       0.51586400       0.63809300
   181  C          0.92142110       0.01109500       0.21059400
   182  C          0.57857890       0.51109500       0.28940600
   183  C          0.07857890       0.98890500       0.78940600
   184  C          0.42142110       0.48890500       0.71059400
   185  C          0.88738900       0.14526400       0.10516400
   186  C          0.61261100       0.64526400       0.39483600
   187  C          0.11261100       0.85473600       0.89483600
   188  C          0.38738900       0.35473600       0.60516400
   189  C          0.92393110       0.10549500       0.22732400
   190  C          0.57606890       0.60549500       0.27267600
   191  C          0.07606890       0.89450500       0.77267600
   192  C          0.42393110       0.39450500       0.72732400
