data_HABFOG
_symmetry_space_group_name_H-M    'P1'
_symmetry_Int_Tables_number       1
loop_
_symmetry_equiv_pos_site_id
_symmetry_equiv_pos_as_xyz
1 x,y,z
_cell_length_a                   3.60152
_cell_length_b                   20.140013
_cell_length_c                   14.12799
_cell_angle_alpha                90.0
_cell_angle_beta                 92.1342
_cell_angle_gamma                90.0
loop_
_atom_site_label
_atom_site_type_symbol
_atom_site_fract_x
_atom_site_fract_y
_atom_site_fract_z
     1  B          0.45071100       0.36732000       0.16733000
     2  B          0.54928900       0.86732000       0.33267000
     3  B          0.54928900       0.63268000       0.83267000
     4  B          0.45071100       0.13268000       0.66733000
     5  O          0.32647000       0.36401000       0.25762000
     6  O          0.67353000       0.86401000       0.24238000
     7  O          0.67353000       0.63599000       0.74238000
     8  O          0.32647000       0.13599000       0.75762000
     9  O          0.59987000       0.42531000       0.13482000
    10  O          0.40013000       0.92531000       0.36518000
    11  O          0.40013000       0.57469000       0.86518000
    12  O          0.59987000       0.07469000       0.63482000
    13  O          0.42517000       0.31371000       0.11022000
    14  O          0.57483000       0.81371000       0.38978000
    15  O          0.57483000       0.68629000       0.88978000
    16  O          0.42517000       0.18629000       0.61022000
    17  H          0.22510000       0.32721900       0.27402600
    18  H          0.77490000       0.82721900       0.22597400
    19  H          0.77490000       0.67278100       0.72597400
    20  H          0.22510000       0.17278100       0.77402600
    21  H          0.63611000       0.45392200       0.18162800
    22  H          0.36389000       0.95392200       0.31837200
    23  H          0.36389000       0.54607800       0.81837200
    24  H          0.63611000       0.04607800       0.68162800
    25  H          0.52712000       0.31731900       0.05313200
    26  H          0.47288000       0.81731900       0.44686800
    27  H          0.47288000       0.68268100       0.94686800
    28  H          0.52712000       0.18268100       0.55313200
    29  B          0.33801100       0.48912000       0.63713000
    30  B          0.66198900       0.98912000       0.86287000
    31  B          0.66198900       0.51088000       0.36287000
    32  B          0.33801100       0.01088000       0.13713000
    33  O          0.26417000       0.43771000       0.57762000
    34  O          0.73583000       0.93771000       0.92238000
    35  O          0.73583000       0.56229000       0.42238000
    36  O          0.26417000       0.06229000       0.07762000
    37  O          0.25127000       0.48521000       0.72952000
    38  O          0.74873000       0.98521000       0.77048000
    39  O          0.74873000       0.51479000       0.27048000
    40  O          0.25127000       0.01479000       0.22952000
    41  O          0.50037000       0.54591000       0.60452000
    42  O          0.49963000       0.04591000       0.89548000
    43  O          0.49963000       0.45409000       0.39548000
    44  O          0.50037000       0.95409000       0.10452000
    45  H          0.33110000       0.44551900       0.51612800
    46  H          0.66890000       0.94551900       0.98387200
    47  H          0.66890000       0.55448100       0.48387200
    48  H          0.33110000       0.05448100       0.01612800
    49  H          0.14711000       0.45052100       0.74862500
    50  H          0.85289000       0.95052100       0.75137500
    51  H          0.85289000       0.54947900       0.25137500
    52  H          0.14711000       0.04947900       0.24862500
    53  H          0.56810000       0.57192100       0.65222600
    54  H          0.43190000       0.07192100       0.84777400
    55  H          0.43190000       0.42807900       0.34777400
    56  H          0.56810000       0.92807900       0.15222600
    57  C          0.83798000       0.37262000       0.88898000
    58  C          0.16202000       0.87262000       0.61102000
    59  C          0.16202000       0.62738000       0.11102000
    60  C          0.83798000       0.12738000       0.38898000
    61  N         -0.03783000       0.37281000       0.80078000
    62  N          0.03783000       0.87281000       0.69922000
    63  N          0.03783000       0.62719000       0.19922000
    64  N         -0.03783000       0.12719000       0.30078000
    65  C          0.03059000       0.31252000       0.76458000
    66  C         -0.03059000       0.81252000       0.73542000
    67  C         -0.03059000       0.68748000       0.23542000
    68  C          0.03059000       0.18748000       0.26458000
    69  N         -0.00023000       0.25461000       0.81148000
    70  N          0.00023000       0.75461000       0.68852000
    71  N          0.00023000       0.74539000       0.18852000
    72  N         -0.00023000       0.24539000       0.31148000
    73  C          0.86488000       0.26062000       0.89798000
    74  C          0.13512000       0.76062000       0.60202000
    75  C          0.13512000       0.73938000       0.10202000
    76  C          0.86488000       0.23938000       0.39798000
    77  N          0.77297000       0.31741000       0.94048000
    78  N          0.22703000       0.81741000       0.55952000
    79  N          0.22703000       0.68259000       0.05952000
    80  N          0.77297000       0.18259000       0.44048000
    81  N          0.77279000       0.43092000       0.93048000
    82  N          0.22721000       0.93092000       0.56952000
    83  N          0.22721000       0.56908000       0.06952000
    84  N          0.77279000       0.06908000       0.43048000
    85  N          0.14299000       0.30982000       0.67548000
    86  N          0.85701000       0.80982000       0.82452000
    87  N          0.85701000       0.69018000       0.32452000
    88  N          0.14299000       0.19018000       0.17548000
    89  N          0.82629000       0.20432000       0.94857000
    90  N          0.17371000       0.70432000       0.55143000
    91  N          0.17371000       0.79568000       0.05143000
    92  N          0.82629000       0.29568000       0.44857000
    93  H          0.73239300       0.42991700      -0.00542600
    94  H          0.26760700       0.92991700       0.50542600
    95  H          0.26760700       0.57008300       0.00542600
    96  H          0.73239300       0.07008300       0.49457400
    97  H          0.79811000       0.46962200       0.89407300
    98  H          0.20189000       0.96962200       0.60592700
    99  H          0.20189000       0.53037800       0.10592700
   100  H          0.79811000       0.03037800       0.39407300
   101  H          0.18048200       0.34851800       0.64557800
   102  H          0.81951800       0.84851800       0.85442200
   103  H          0.81951800       0.65148200       0.35442200
   104  H          0.18048200       0.15148200       0.14557800
   105  H          0.21628800       0.27001800       0.64997800
   106  H          0.78371200       0.77001800       0.85002200
   107  H          0.78371200       0.72998200       0.35002200
   108  H          0.21628800       0.22998200       0.14997800
   109  H          0.84011000       0.16422200       0.91747100
   110  H          0.15989000       0.66422200       0.58252900
   111  H          0.15989000       0.83577800       0.08252900
   112  H          0.84011000       0.33577800       0.41747100
   113  H          0.74111000       0.20691900       0.00312800
   114  H          0.25889000       0.70691900       0.49687200
   115  H          0.25889000       0.79308100      -0.00312800
   116  H          0.74111000       0.29308100       0.50312800
