data_HACQAH
_symmetry_space_group_name_H-M    'P1'
_symmetry_Int_Tables_number       1
loop_
_symmetry_equiv_pos_site_id
_symmetry_equiv_pos_as_xyz
1 x,y,z
_cell_length_a                   6.770214
_cell_length_b                   9.7922
_cell_length_c                   9.8672
_cell_angle_alpha                103.1237
_cell_angle_beta                 95.1847
_cell_angle_gamma                92.4497
loop_
_atom_site_label
_atom_site_type_symbol
_atom_site_fract_x
_atom_site_fract_y
_atom_site_fract_z
     1  Br         0.91990110       0.71214800       0.19835700
     2  Br         0.08009890       0.28785200       0.80164300
     3  S          0.83043000       0.79722000       0.60212000
     4  S          0.16957000       0.20278000       0.39788000
     5  N          0.59811000       0.18287000       0.17717000
     6  N          0.40189000       0.81713000       0.82283000
     7  N          0.68131000       0.34567000       0.38917000
     8  N          0.31869000       0.65433000       0.61083000
     9  H          0.67681000       0.28007000       0.43697000
    10  H          0.32319000       0.71993000       0.56303000
    11  N          0.64541000       0.40787000       0.17357000
    12  N          0.35459000       0.59213000       0.82643000
    13  H          0.65871000       0.49957000       0.20557000
    14  H          0.34129000       0.50043000       0.79443000
    15  N          0.72899000       0.48557000       0.45537000
    16  N          0.27101000       0.51443000       0.54463000
    17  C          0.64301100       0.31488000       0.25169000
    18  C          0.35698900       0.68512000       0.74831000
    19  C          0.82441100       0.65048000       0.67038000
    20  C          0.17558900       0.34952000       0.32962000
    21  C          0.91191200       0.83089000       0.86619000
    22  C          0.08808800       0.16911000       0.13381000
    23  H          0.94601200       0.87379000       0.96249000
    24  H          0.05398800       0.12621000       0.03751000
    25  C          0.77281100       0.50799000       0.58769000
    26  C          0.22718900       0.49201000       0.41231000
    27  H          0.77181100       0.43159000       0.63219000
    28  H          0.22818900       0.56841000       0.36781000
    29  C          0.57071300       0.18308000       0.02968000
    30  C          0.42928700       0.81692000       0.97032000
    31  H          0.66001300       0.11878000       0.97612000
    32  H          0.33998700       0.88122000       0.02388000
    33  H          0.43151300       0.15398000      -0.00968000
    34  H          0.56848700       0.84602000       0.00968000
    35  C          0.87391100       0.68689000       0.81509000
    36  C          0.12608900       0.31311000       0.18491000
    37  H          0.88071100       0.62069000       0.87209000
    38  H          0.11928900       0.37931000       0.12791000
    39  C          0.62261300       0.33479000       0.02488000
    40  C          0.37738700       0.66521000       0.97512000
    41  H          0.51451300       0.37219000       0.97202000
    42  H          0.48548700       0.62781000       0.02798000
    43  H          0.74761300       0.34309000       0.98152000
    44  H          0.25238700       0.65691000       0.01848000
    45  C          0.89551200       0.90399000       0.76458000
    46  C          0.10448800       0.09601000       0.23542000
    47  H          0.91761200       0.00319000       0.78168000
    48  H          0.08238800      -0.00319000       0.21832000
    49  O          0.61118000       0.94956000       0.31596000
    50  O          0.38882000       0.05044000       0.68404000
    51  O          0.70909000       0.14736000       0.56476000
    52  O          0.29091000       0.85264000       0.43524000
