data_HADLIH
_symmetry_space_group_name_H-M    'P1'
_symmetry_Int_Tables_number       1
loop_
_symmetry_equiv_pos_site_id
_symmetry_equiv_pos_as_xyz
1 x,y,z
_cell_length_a                   13.8823
_cell_length_b                   16.3283
_cell_length_c                   12.7922
_cell_angle_alpha                90.0
_cell_angle_beta                 101.332
_cell_angle_gamma                90.0
loop_
_atom_site_label
_atom_site_type_symbol
_atom_site_fract_x
_atom_site_fract_y
_atom_site_fract_z
     1  N          0.32041000       0.47891000       0.11851000
     2  N          0.67959000       0.47891000       0.38149000
     3  N          0.82041000       0.97891000       0.11851000
     4  N          0.17959000       0.97891000       0.38149000
     5  N          0.67959000       0.52109000       0.88149000
     6  N          0.32041000       0.52109000       0.61851000
     7  N          0.17959000       0.02109000       0.88149000
     8  N          0.82041000       0.02109000       0.61851000
     9  C          0.29191000       0.55611000       0.08482000
    10  C          0.70809000       0.55611000       0.41518000
    11  C          0.79191000       0.05611000       0.08482000
    12  C          0.20809000       0.05611000       0.41518000
    13  C          0.70809000       0.44389000       0.91518000
    14  C          0.29191000       0.44389000       0.58482000
    15  C          0.20809000       0.94389000       0.91518000
    16  C          0.79191000       0.94389000       0.58482000
    17  C          0.37611000       0.60021000       0.07652000
    18  C          0.62389000       0.60021000       0.42348000
    19  C          0.87611000       0.10021000       0.07652000
    20  C          0.12389000       0.10021000       0.42348000
    21  C          0.62389000       0.39979000       0.92348000
    22  C          0.37611000       0.39979000       0.57652000
    23  C          0.12389000       0.89979000       0.92348000
    24  C          0.87611000       0.89979000       0.57652000
    25  C          0.45801000       0.54691000       0.10881000
    26  C          0.54199000       0.54691000       0.39119000
    27  C          0.95801000       0.04691000       0.10881000
    28  C          0.04199000       0.04691000       0.39119000
    29  C          0.54199000       0.45309000       0.89119000
    30  C          0.45801000       0.45309000       0.60881000
    31  C          0.04199000       0.95309000       0.89119000
    32  C          0.95801000       0.95309000       0.60881000
    33  C          0.42191000       0.47201000       0.13281000
    34  C          0.57809000       0.47201000       0.36719000
    35  C          0.92191000       0.97201000       0.13281000
    36  C          0.07809000       0.97201000       0.36719000
    37  C          0.57809000       0.52799000       0.86719000
    38  C          0.42191000       0.52799000       0.63281000
    39  C          0.07809000       0.02799000       0.86719000
    40  C          0.92191000       0.02799000       0.63281000
    41  C          0.25591000       0.41441000       0.13952000
    42  C          0.74409000       0.41441000       0.36048000
    43  C          0.75591000       0.91441000       0.13952000
    44  C          0.24409000       0.91441000       0.36048000
    45  C          0.74409000       0.58559000       0.86048000
    46  C          0.25591000       0.58559000       0.63952000
    47  C          0.24409000       0.08559000       0.86048000
    48  C          0.75591000       0.08559000       0.63952000
    49  C          0.24492000       0.40102000       0.24132000
    50  C          0.75508000       0.40102000       0.25868000
    51  C          0.74492000       0.90102000       0.24132000
    52  C          0.25508000       0.90102000       0.25868000
    53  C          0.75508000       0.59898000       0.75868000
    54  C          0.24492000       0.59898000       0.74132000
    55  C          0.25508000       0.09898000       0.75868000
    56  C          0.74492000       0.09898000       0.74132000
    57  C          0.18602000       0.33662000       0.26213000
    58  C          0.81398000       0.33662000       0.23787000
    59  C          0.68602000       0.83662000       0.26213000
    60  C          0.31398000       0.83662000       0.23787000
    61  C          0.81398000       0.66338000       0.73787000
    62  C          0.18602000       0.66338000       0.76213000
    63  C          0.31398000       0.16338000       0.73787000
    64  C          0.68602000       0.16338000       0.76213000
    65  C          0.13933000       0.28872000       0.18223000
    66  C          0.86067000       0.28872000       0.31777000
    67  C          0.63933000       0.78872000       0.18223000
    68  C          0.36067000       0.78872000       0.31777000
    69  C          0.86067000       0.71128000       0.81777000
    70  C          0.13933000       0.71128000       0.68223000
    71  C          0.36067000       0.21128000       0.81777000
    72  C          0.63933000       0.21128000       0.68223000
    73  C          0.15134000       0.30283000       0.08223000
    74  C          0.84866000       0.30283000       0.41777000
    75  C          0.65134000       0.80283000       0.08223000
    76  C          0.34866000       0.80283000       0.41777000
    77  C          0.84866000       0.69717000       0.91777000
    78  C          0.15134000       0.69717000       0.58223000
    79  C          0.34866000       0.19717000       0.91777000
    80  C          0.65134000       0.19717000       0.58223000
    81  C          0.21073000       0.36572000       0.05893000
    82  C          0.78927000       0.36572000       0.44107000
    83  C          0.71073000       0.86572000       0.05893000
    84  C          0.28927000       0.86572000       0.44107000
    85  C          0.78927000       0.63428000       0.94107000
    86  C          0.21073000       0.63428000       0.55893000
    87  C          0.28927000       0.13428000       0.94107000
    88  C          0.71073000       0.13428000       0.55893000
    89  S          0.48831000       0.38391000       0.16571000
    90  S          0.51169000       0.38391000       0.33429000
    91  S         -0.01169000       0.88391000       0.16571000
    92  S          0.01169000       0.88391000       0.33429000
    93  S          0.51169000       0.61609000       0.83429000
    94  S          0.48831000       0.61609000       0.66571000
    95  S          0.01169000       0.11609000       0.83429000
    96  S         -0.01169000       0.11609000       0.66571000
    97  C          0.55911000       0.56551000       0.11812000
    98  C          0.44089000       0.56551000       0.38188000
    99  C          0.05911000       0.06551000       0.11812000
   100  C          0.94089000       0.06551000       0.38188000
   101  C          0.44089000       0.43449000       0.88188000
   102  C          0.55911000       0.43449000       0.61812000
   103  C          0.94089000       0.93449000       0.88188000
   104  C          0.05911000       0.93449000       0.61812000
   105  N          0.64041000       0.58041000       0.12682000
   106  N          0.35959000       0.58041000       0.37318000
   107  N          0.14041000       0.08041000       0.12682000
   108  N          0.85959000       0.08041000       0.37318000
   109  N          0.35959000       0.41959000       0.87318000
   110  N          0.64041000       0.41959000       0.62682000
   111  N          0.85959000       0.91959000       0.87318000
   112  N          0.14041000       0.91959000       0.62682000
   113  C          0.37741000       0.68161000       0.03952000
   114  C          0.62259000       0.68161000       0.46048000
   115  C          0.87741000       0.18161000       0.03952000
   116  C          0.12259000       0.18161000       0.46048000
   117  C          0.62259000       0.31839000       0.96048000
   118  C          0.37741000       0.31839000       0.53952000
   119  C          0.12259000       0.81839000       0.96048000
   120  C          0.87741000       0.81839000       0.53952000
   121  N          0.37711000       0.74691000       0.00832000
   122  N          0.62289000       0.74691000       0.49168000
   123  N          0.87711000       0.24691000       0.00832000
   124  N          0.12289000       0.24691000       0.49168000
   125  N          0.62289000       0.25309000      -0.00832000
   126  N          0.37711000       0.25309000       0.50832000
   127  N          0.12289000       0.75309000      -0.00832000
   128  N          0.87711000       0.75309000       0.50832000
   129  N          0.19731000       0.57941000       0.06102000
   130  N          0.80269000       0.57941000       0.43898000
   131  N          0.69731000       0.07941000       0.06102000
   132  N          0.30269000       0.07941000       0.43898000
   133  N          0.80269000       0.42059000       0.93898000
   134  N          0.19731000       0.42059000       0.56102000
   135  N          0.30269000       0.92059000       0.93898000
   136  N          0.69731000       0.92059000       0.56102000
   137  H          0.28252200       0.44081900       0.30312400
   138  H          0.71747800       0.44081900       0.19687600
   139  H          0.78252200       0.94081900       0.30312400
   140  H          0.21747800       0.94081900       0.19687600
   141  H          0.71747800       0.55918100       0.69687600
   142  H          0.28252200       0.55918100       0.80312400
   143  H          0.21747800       0.05918100       0.69687600
   144  H          0.78252200       0.05918100       0.80312400
   145  H          0.17792300       0.32772000       0.33192600
   146  H          0.82207700       0.32772000       0.16807400
   147  H          0.67792300       0.82772000       0.33192600
   148  H          0.32207700       0.82772000       0.16807400
   149  H          0.82207700       0.67228000       0.66807400
   150  H          0.17792300       0.67228000       0.83192600
   151  H          0.32207700       0.17228000       0.66807400
   152  H          0.67792300       0.17228000       0.83192600
   153  H          0.09202900       0.24752300       0.19862900
   154  H          0.90797100       0.24752300       0.30137100
   155  H          0.59202900       0.74752300       0.19862900
   156  H          0.40797100       0.74752300       0.30137100
   157  H          0.90797100       0.75247700       0.80137100
   158  H          0.09202900       0.75247700       0.69862900
   159  H          0.40797100       0.25247700       0.80137100
   160  H          0.59202900       0.25247700       0.69862900
   161  H          0.12722800       0.27252600       0.02773300
   162  H          0.87277200       0.27252600       0.47226700
   163  H          0.62722800       0.77252600       0.02773300
   164  H          0.37277200       0.77252600       0.47226700
   165  H          0.87277200       0.72747400       0.97226700
   166  H          0.12722800       0.72747400       0.52773300
   167  H          0.37277200       0.22747400       0.97226700
   168  H          0.62722800       0.22747400       0.52773300
   169  H          0.21992600       0.37892200       0.98887000
   170  H          0.78007400       0.37892200       0.51113000
   171  H          0.71992600       0.87892200       0.98887000
   172  H          0.28007400       0.87892200       0.51113000
   173  H          0.78007400       0.62107800       0.01113000
   174  H          0.21992600       0.62107800       0.48887000
   175  H          0.28007400       0.12107800       0.01113000
   176  H          0.71992600       0.12107800       0.48887000
   177  H          0.18422000       0.63341900       0.05082300
   178  H          0.81578000       0.63341900       0.44917700
   179  H          0.68422000       0.13341900       0.05082300
   180  H          0.31578000       0.13341900       0.44917700
   181  H          0.81578000       0.36658100       0.94917700
   182  H          0.18422000       0.36658100       0.55082300
   183  H          0.31578000       0.86658100       0.94917700
   184  H          0.68422000       0.86658100       0.55082300
   185  H          0.15472200       0.55221900       0.08822400
   186  H          0.84527800       0.55221900       0.41177600
   187  H          0.65472200       0.05221900       0.08822400
   188  H          0.34527800       0.05221900       0.41177600
   189  H          0.84527800       0.44778100       0.91177600
   190  H          0.15472200       0.44778100       0.58822400
   191  H          0.34527800       0.94778100       0.91177600
   192  H          0.65472200       0.94778100       0.58822400
   193  C          0.48176000       0.13484000       0.19055000
   194  C          0.51824000       0.13484000       0.30945000
   195  C          0.98176000       0.63484000       0.19055000
   196  C          0.01824000       0.63484000       0.30945000
   197  C          0.51824000       0.86516000       0.80945000
   198  C          0.48176000       0.86516000       0.69055000
   199  C          0.01824000       0.36516000       0.80945000
   200  C          0.98176000       0.36516000       0.69055000
   201  O          0.51522000       0.06382000       0.14563000
   202  O          0.48478000       0.06382000       0.35437000
   203  O          0.01522000       0.56382000       0.14563000
   204  O          0.98478000       0.56382000       0.35437000
   205  O          0.48478000       0.93618000       0.85437000
   206  O          0.51522000       0.93618000       0.64563000
   207  O          0.98478000       0.43618000       0.85437000
   208  O          0.01522000       0.43618000       0.64563000
   209  C          0.48194000      -0.00773000       0.19083000
   210  C          0.51806000      -0.00773000       0.30917000
   211  C          0.98194000       0.49227000       0.19083000
   212  C          0.01806000       0.49227000       0.30917000
   213  C          0.51806000       0.00773000       0.80917000
   214  C          0.48194000       0.00773000       0.69083000
   215  C          0.01806000       0.50773000       0.80917000
   216  C          0.98194000       0.50773000       0.69083000
   217  H          0.39574800       0.14053900       0.19704600
   218  H          0.60425200       0.14053900       0.30295400
   219  H          0.89574800       0.64053900       0.19704600
   220  H          0.10425200       0.64053900       0.30295400
   221  H          0.60425200       0.85946100       0.80295400
   222  H          0.39574800       0.85946100       0.69704600
   223  H          0.10425200       0.35946100       0.80295400
   224  H          0.89574800       0.35946100       0.69704600
   225  H          0.50705300       0.18894900       0.15575300
   226  H          0.49294700       0.18894900       0.34424700
   227  H          0.00705300       0.68894900       0.15575300
   228  H         -0.00705300       0.68894900       0.34424700
   229  H          0.49294700       0.81105100       0.84424700
   230  H          0.50705300       0.81105100       0.65575300
   231  H         -0.00705300       0.31105100       0.84424700
   232  H          0.00705300       0.31105100       0.65575300
   233  H          0.50253600       0.94196800       0.13793900
   234  H          0.49746400       0.94196800       0.36206100
   235  H          0.00253600       0.44196800       0.13793900
   236  H         -0.00253600       0.44196800       0.36206100
   237  H          0.49746400       0.05803200       0.86206100
   238  H          0.50253600       0.05803200       0.63793900
   239  H         -0.00253600       0.55803200       0.86206100
   240  H          0.00253600       0.55803200       0.63793900
   241  H          0.39392800      -0.00422400       0.17362800
   242  H          0.60607200      -0.00422400       0.32637200
   243  H          0.89392800       0.49577600       0.17362800
   244  H          0.10607200       0.49577600       0.32637200
   245  H          0.60607200       0.00422400       0.82637200
   246  H          0.39392800       0.00422400       0.67362800
   247  H          0.10607200       0.50422400       0.82637200
   248  H          0.89392800       0.50422400       0.67362800
