data_HAFBOJ
_symmetry_space_group_name_H-M    'P1'
_symmetry_Int_Tables_number       1
loop_
_symmetry_equiv_pos_site_id
_symmetry_equiv_pos_as_xyz
1 x,y,z
_cell_length_a                   10.28974
_cell_length_b                   10.99614
_cell_length_c                   23.68829
_cell_angle_alpha                90.0
_cell_angle_beta                 90.0
_cell_angle_gamma                90.0
loop_
_atom_site_label
_atom_site_type_symbol
_atom_site_fract_x
_atom_site_fract_y
_atom_site_fract_z
     1  Br         0.20336300       0.79784300       0.30850200
     2  Br         0.29663700       0.20215700       0.80850200
     3  Br         0.79663700       0.29784300       0.19149800
     4  Br         0.70336300       0.70215700       0.69149800
     5  O          0.63572000       0.39662000       0.30003900
     6  O          0.86428000       0.60338000       0.80003900
     7  O          0.36428000       0.89662000       0.19996100
     8  O          0.13572000       0.10338000       0.69996100
     9  H          0.68120800       0.37933500       0.27169400
    10  H          0.81879200       0.62066500       0.77169400
    11  H          0.31879200       0.87933500       0.22830600
    12  H          0.18120800       0.12066500       0.72830600
    13  O          0.44712000       0.66202000       0.36372100
    14  O          0.05288000       0.33798000       0.86372100
    15  O          0.55288000       0.16202000       0.13627900
    16  O          0.94712000       0.83798000       0.63627900
    17  H          0.37954500       0.69858500       0.35333000
    18  H          0.12045500       0.30141500       0.85333000
    19  H          0.62045500       0.19858500       0.14667000
    20  H          0.87954500       0.80141500       0.64667000
    21  C          0.72442000       0.57062000       0.42579120
    22  C          0.77558000       0.42938000       0.92579120
    23  C          0.27558000       0.07062000       0.07420880
    24  C          0.22442000       0.92938000       0.57420880
    25  C          0.67523000       0.60413000       0.47991130
    26  C          0.82477000       0.39587000       0.97991130
    27  C          0.32477000       0.10413000       0.02008870
    28  C          0.17523000       0.89587000       0.52008870
    29  H          0.58853000       0.58323800       0.48976200
    30  H          0.91147000       0.41676200       0.98976200
    31  H          0.41147000       0.08323800       0.01023800
    32  H          0.08853000       0.91676200       0.51023800
    33  C          0.75103000       0.66593000       0.51798140
    34  C          0.74897000       0.33407000       0.01798140
    35  C          0.24897000       0.16593000       0.98201860
    36  C          0.25103000       0.83407000       0.48201860
    37  H          0.71673000       0.68596400       0.55403000
    38  H          0.78327000       0.31403600       0.05403000
    39  H          0.28327000       0.18596400       0.94597000
    40  H          0.21673000       0.81403600       0.44597000
    41  C          0.87923000       0.69983000       0.50418140
    42  C          0.62077000       0.30017000       0.00418140
    43  C          0.12077000       0.19983000      -0.00418140
    44  C          0.37923000       0.80017000       0.49581860
    45  H          0.93063900       0.74323500       0.53069400
    46  H          0.56936100       0.25676500       0.03069400
    47  H          0.06936100       0.24323500       0.96930600
    48  H          0.43063900       0.75676500       0.46930600
    49  C          0.92953000       0.67013000       0.45249140
    50  C          0.57047000       0.32987000       0.95249140
    51  C          0.07047000       0.17013000       0.04750860
    52  C          0.42953000       0.82987000       0.54750860
    53  H          0.01567400       0.69386300       0.44329200
    54  H          0.48432600       0.30613700       0.94329200
    55  H          0.98432600       0.19386300       0.05670800
    56  H          0.51567400       0.80613700       0.55670800
    57  C          0.85503000       0.60453000       0.41249130
    58  C          0.64497000       0.39547000       0.91249130
    59  C          0.14497000       0.10453000       0.08750870
    60  C          0.35503000       0.89547000       0.58750870
    61  C          0.90683000       0.56853000       0.35952140
    62  C          0.59317000       0.43147000       0.85952140
    63  C          0.09317000       0.06853000       0.14047860
    64  C          0.40683000       0.93147000       0.64047860
    65  H         -0.00755200       0.59256000       0.34949600
    66  H          0.50755200       0.40744000       0.84949600
    67  H          0.00755200       0.09256000       0.15050400
    68  H          0.49244800       0.90744000       0.65050400
    69  C          0.83593000       0.50013000       0.32291130
    70  C          0.66407000       0.49987000       0.82291130
    71  C          0.16407000       0.00013000       0.17708870
    72  C          0.33593000      -0.00013000       0.67708870
    73  H          0.87300400       0.47512600       0.28806700
    74  H          0.62699600       0.52487400       0.78806700
    75  H          0.12699600       0.97512600       0.21193300
    76  H          0.37300400       0.02487400       0.71193300
    77  C          0.70683000       0.46612000       0.33656110
    78  C          0.79317000       0.53388000       0.83656110
    79  C          0.29317000       0.96612000       0.16343890
    80  C          0.20683000       0.03388000       0.66343890
    81  C          0.64923000       0.50222000       0.38636120
    82  C          0.85077000       0.49778000       0.88636120
    83  C          0.35077000       0.00222000       0.11363880
    84  C          0.14923000      -0.00222000       0.61363880
    85  C          0.51173000       0.47063000       0.39825110
    86  C         -0.01173000       0.52937000       0.89825110
    87  C          0.48827000       0.97063000       0.10174890
    88  C          0.01173000       0.02937000       0.60174890
    89  C          0.41443000       0.55213000       0.38557120
    90  C          0.08557000       0.44787000       0.88557120
    91  C          0.58557000       0.05213000       0.11442880
    92  C          0.91443000       0.94787000       0.61442880
    93  C          0.28113000       0.52273000       0.39505120
    94  C          0.21887000       0.47727000       0.89505120
    95  C          0.71887000       0.02273000       0.10494880
    96  C          0.78113000       0.97727000       0.60494880
    97  H          0.21520300       0.58078600       0.38726300
    98  H          0.28479700       0.41921400       0.88726300
    99  H          0.78479700       0.08078600       0.11273700
   100  H          0.71520300       0.91921400       0.61273700
   101  C          0.24873000       0.41013000       0.41543130
   102  C          0.25127000       0.58987000       0.91543130
   103  C          0.75127000       0.91013000       0.08456870
   104  C          0.74873000       0.08987000       0.58456870
   105  H          0.15964400       0.38962600       0.41994300
   106  H          0.34035600       0.61037400       0.91994300
   107  H          0.84035600       0.88962600       0.08005700
   108  H          0.65964400       0.11037400       0.58005700
   109  C          0.34453000       0.32413000       0.42985130
   110  C          0.15547000       0.67587000       0.92985130
   111  C          0.65547000       0.82413000       0.07014870
   112  C          0.84453000       0.17587000       0.57014870
   113  C          0.31343000       0.20843000       0.45259140
   114  C          0.18657000       0.79157000       0.95259140
   115  C          0.68657000       0.70843000       0.04740860
   116  C          0.81343000       0.29157000       0.54740860
   117  H          0.22480400       0.18558100       0.45648700
   118  H          0.27519600       0.81441900       0.95648700
   119  H          0.77519600       0.68558100       0.04351300
   120  H          0.72480400       0.31441900       0.54351300
   121  C          0.40794000       0.12953000       0.46894160
   122  C          0.09206000       0.87047000       0.96894160
   123  C          0.59206000       0.62953000       0.03105840
   124  C          0.90794000       0.37047000       0.53105840
   125  H          0.38521900       0.05313300       0.48490700
   126  H          0.11478100       0.94686700       0.98490700
   127  H          0.61478100       0.55313300       0.01509300
   128  H          0.88521900       0.44686700       0.51509300
   129  C          0.54014000       0.16143000       0.46212160
   130  C          0.95986000       0.83857000       0.96212160
   131  C          0.45986000       0.66143000       0.03787840
   132  C          0.04014000       0.33857000       0.53787840
   133  H          0.60593100       0.10628000       0.47383000
   134  H          0.89406900       0.89372000       0.97383000
   135  H          0.39406900       0.60628000       0.02617000
   136  H          0.10593100       0.39372000       0.52617000
   137  C          0.57443000       0.27083000       0.43882130
   138  C          0.92557000       0.72917000       0.93882130
   139  C          0.42557000       0.77083000       0.06117870
   140  C          0.07443000       0.22917000       0.56117870
   141  H          0.66367400       0.29029400       0.43394100
   142  H          0.83632600       0.70970600       0.93394100
   143  H          0.33632600       0.79029400       0.06605900
   144  H          0.16367400       0.20970600       0.56605900
   145  C          0.47773000       0.35543000       0.42192120
   146  C          0.02227000       0.64457000       0.92192120
   147  C          0.52227000       0.85543000       0.07807880
   148  C          0.97773000       0.14457000       0.57807880
   149  N          0.67514000       0.96283000       0.29457150
   150  N          0.82486000       0.03717000       0.79457150
   151  N          0.32486000       0.46283000       0.20542850
   152  N          0.17514000       0.53717000       0.70542850
   153  C          0.77214000       0.95033000       0.39264160
   154  C          0.72786000       0.04967000       0.89264160
   155  C          0.22786000       0.45033000       0.10735840
   156  C          0.27214000       0.54967000       0.60735840
   157  H          0.73120800       0.87376000       0.39816300
   158  H          0.76879200       0.12624000       0.89816300
   159  H          0.26879200       0.37376000       0.10183700
   160  H          0.23120800       0.62624000       0.60183700
   161  C          0.84824000       0.00154000       0.43496160
   162  C          0.65176000      -0.00154000       0.93496160
   163  C          0.15176000       0.50154000       0.06503840
   164  C          0.34824000       0.49846000       0.56503840
   165  H          0.85910200       0.95920700       0.46961400
   166  H          0.64089800       0.04079300       0.96961400
   167  H          0.14089800       0.45920700       0.03038600
   168  H          0.35910200       0.54079300       0.53038600
   169  C          0.90834000       0.11284000       0.42748160
   170  C          0.59166000       0.88716000       0.92748160
   171  C          0.09166000       0.61284000       0.07251840
   172  C          0.40834000       0.38716000       0.57251840
   173  H          0.95933100       0.14736400       0.45678300
   174  H          0.54066900       0.85263600       0.95678300
   175  H          0.04066900       0.64736400       0.04321700
   176  H          0.45933100       0.35263600       0.54321700
   177  C          0.89294000       0.17303000       0.37669160
   178  C          0.60706000       0.82697000       0.87669160
   179  C          0.10706000       0.67303000       0.12330840
   180  C          0.39294000       0.32697000       0.62330840
   181  H          0.93385900       0.24944300       0.37111400
   182  H          0.56614100       0.75055700       0.87111400
   183  H          0.06614100       0.74944300       0.12888600
   184  H          0.43385900       0.25055700       0.62888600
   185  C          0.81884000       0.12343000       0.33406150
   186  C          0.68116000       0.87657000       0.83406150
   187  C          0.18116000       0.62343000       0.16593850
   188  C          0.31884000       0.37657000       0.66593850
   189  H          0.81014000       0.16480500       0.29907800
   190  H          0.68986000       0.83519500       0.79907800
   191  H          0.18986000       0.66480500       0.20092200
   192  H          0.31014000       0.33519500       0.70092200
   193  C          0.75704000       0.01283000       0.34237150
   194  C          0.74296000       0.98717000       0.84237150
   195  C          0.24296000       0.51283000       0.15762850
   196  C          0.25704000       0.48717000       0.65762850
   197  C          0.57846000       0.05775000       0.27242000
   198  C          0.92154000       0.94225000       0.77242000
   199  C          0.42154000       0.55775000       0.22758000
   200  C          0.07846000       0.44225000       0.72758000
   201  H          0.53401200       0.02502200       0.23859300
   202  H          0.96598800       0.97497800       0.73859300
   203  H          0.46598800       0.52502200       0.26140700
   204  H          0.03401200       0.47497800       0.76140700
   205  H          0.62640500       0.13173600       0.26099500
   206  H          0.87359500       0.86826400       0.76099500
   207  H          0.37359500       0.63173600       0.23900500
   208  H          0.12640500       0.36826400       0.73900500
   209  C          0.47517000       0.09226000       0.31732000
   210  C          0.02483000       0.90774000       0.81732000
   211  C          0.52483000       0.59226000       0.18268000
   212  C          0.97517000       0.40774000       0.68268000
   213  H          0.39807200       0.12541800       0.29852000
   214  H          0.10192800       0.87458200       0.79852000
   215  H          0.60192800       0.62541800       0.20148000
   216  H          0.89807200       0.37458200       0.70148000
   217  H          0.51127500       0.15345300       0.34298100
   218  H         -0.01127500       0.84654700       0.84298100
   219  H          0.48872500       0.65345300       0.15701900
   220  H          0.01127500       0.34654700       0.65701900
   221  H          0.45077700       0.01966800       0.33889600
   222  H          0.04922300       0.98033200       0.83889600
   223  H          0.54922300       0.51966800       0.16110400
   224  H          0.95077700       0.48033200       0.66110400
   225  C          0.60475000       0.85084000       0.30922000
   226  C          0.89525000       0.14916000       0.80922000
   227  C          0.39525000       0.35084000       0.19078000
   228  C          0.10475000       0.64916000       0.69078000
   229  H          0.66723300       0.78705000       0.31921100
   230  H          0.83276700       0.21295000       0.81921100
   231  H          0.33276700       0.28705000       0.18078900
   232  H          0.16723300       0.71295000       0.68078900
   233  H          0.55277800       0.82420700       0.27684500
   234  H          0.94722200       0.17579300       0.77684500
   235  H          0.44722200       0.32420700       0.22315500
   236  H          0.05277800       0.67579300       0.72315500
   237  H          0.54736800       0.86644900       0.34145300
   238  H          0.95263200       0.13355100       0.84145300
   239  H          0.45263200       0.36644900       0.15854700
   240  H          0.04736800       0.63355100       0.65854700
   241  C          0.76175000       0.94156000       0.24292000
   242  C          0.73825000       0.05844000       0.74292000
   243  C          0.23825000       0.44156000       0.25708000
   244  C          0.26175000       0.55844000       0.75708000
   245  H          0.70869700       0.90851800       0.21150500
   246  H          0.79130300       0.09148200       0.71150500
   247  H          0.29130300       0.40851800       0.28849500
   248  H          0.20869700       0.59148200       0.78849500
   249  H          0.79971400       0.01965100       0.23036700
   250  H          0.70028600       0.98034900       0.73036700
   251  H          0.20028600       0.51965100       0.26963300
   252  H          0.29971400       0.48034900       0.76963300
   253  C          0.86356000       0.85787000       0.25632000
   254  C          0.63644000       0.14213000       0.75632000
   255  C          0.13644000       0.35787000       0.24368000
   256  C          0.36356000       0.64213000       0.74368000
   257  H          0.92124100       0.87460200       0.28662000
   258  H          0.57875900       0.12539800       0.78662000
   259  H          0.07875900       0.37460200       0.21338000
   260  H          0.42124100       0.62539800       0.71338000
   261  C          0.87769000       0.75361000       0.22544000
   262  C          0.62231000       0.24639000       0.72544000
   263  C          0.12231000       0.25361000       0.27456000
   264  C          0.37769000       0.74639000       0.77456000
   265  H          0.81985600       0.73696700       0.19506100
   266  H          0.68014400       0.26303300       0.69506100
   267  H          0.18014400       0.23696700       0.30493900
   268  H          0.31985600       0.76303300       0.80493900
   269  H          0.94519800       0.69790400       0.23420000
   270  H          0.55480200       0.30209600       0.73420000
   271  H          0.05480200       0.19790400       0.26580000
   272  H          0.44519800       0.80209600       0.76580000
