data_HAFSUF
_symmetry_space_group_name_H-M    'P1'
_symmetry_Int_Tables_number       1
loop_
_symmetry_equiv_pos_site_id
_symmetry_equiv_pos_as_xyz
1 x,y,z
_cell_length_a                   7.46656
_cell_length_b                   9.66589
_cell_length_c                   10.30619
_cell_angle_alpha                96.55401
_cell_angle_beta                 101.21101
_cell_angle_gamma                105.77101
loop_
_atom_site_label
_atom_site_type_symbol
_atom_site_fract_x
_atom_site_fract_y
_atom_site_fract_z
     1  Cl         0.43815800       0.89876400       0.17700700
     2  Cl         0.56184200       0.10123600       0.82299300
     3  N          0.02893000       0.01652190       0.79056190
     4  N          0.97107000      -0.01652190       0.20943810
     5  C          0.65683000       0.36472000       0.39952000
     6  C          0.34317000       0.63528000       0.60048000
     7  C          0.52223000       0.07902000       0.26222000
     8  C          0.47777000       0.92098000       0.73778000
     9  C          0.62003000       0.10822000       0.39452000
    10  C          0.37997000       0.89178000       0.60548000
    11  H          0.64130000       0.03280000       0.43770000
    12  H          0.35870000       0.96720000       0.56230000
    13  C          0.82653000       0.57052000       0.59032000
    14  C          0.17347000       0.42948000       0.40968000
    15  H          0.85890000       0.50390000       0.64150000
    16  H          0.14110000       0.49610000       0.35850000
    17  C          0.86003000       0.83762000       0.59332000
    18  C          0.13997000       0.16238000       0.40668000
    19  H          0.79060000       0.81830000       0.50450000
    20  H          0.20940000       0.18170000       0.49550000
    21  C          0.89323000       0.72432000       0.65562000
    22  C          0.10677000       0.27568000       0.34438000
    23  C          0.48983000       0.18852000       0.19732000
    24  C          0.51017000       0.81148000       0.80268000
    25  H          0.42340000       0.16760000       0.10760000
    26  H          0.57660000       0.83240000       0.89240000
    27  C         -0.00297000       0.76362000       0.78802000
    28  C          0.00297000       0.23638000       0.21198000
    29  H          0.02450000       0.69250000       0.83520000
    30  H         -0.02450000       0.30750000       0.16480000
    31  C          0.55633000       0.32962000       0.26572000
    32  C          0.44367000       0.67038000       0.73428000
    33  H          0.53360000       0.40400000       0.22130000
    34  H          0.46640000       0.59600000       0.77870000
    35  C          0.72543000       0.51772000       0.46662000
    36  C          0.27457000       0.48228000       0.53338000
    37  H          0.69380000       0.58500000       0.41590000
    38  H          0.30620000       0.41500000       0.58410000
    39  C          0.68643000       0.25062000       0.46282000
    40  C          0.31357000       0.74938000       0.53718000
    41  H          0.75200000       0.27040000       0.55260000
    42  H          0.24800000       0.72960000       0.44740000
    43  C          0.92983000       0.97872000       0.66312000
    44  C          0.07017000       0.02128000       0.33688000
    45  H          0.90630000       0.05250000       0.61830000
    46  H          0.09370000       0.94750000       0.38170000
    47  C          0.05923000       0.90703000       0.84952000
    48  C          0.94077000       0.09297000       0.15048000
    49  H          0.12750000       0.92940000       0.93870000
    50  H          0.87250000       0.07060000       0.06130000
    51  O          0.26122000       0.53456150       0.00081170
    52  O          0.73878000       0.46543850      -0.00081170
    53  C          0.19953000       0.40972000       0.93352000
    54  C          0.80047000       0.59028000       0.06648000
    55  N          0.01042000       0.34206190       0.88681190
    56  N         -0.01042000       0.65793810       0.11318810
    57  H          0.92900000       0.38570000       0.90360000
    58  H          0.07100000       0.61430000       0.09640000
    59  H          0.97100000       0.25530000       0.84020000
    60  H          0.02900000       0.74470000       0.15980000
    61  N          0.31623000       0.33563190       0.89982000
    62  N          0.68377000       0.66436810       0.10018000
    63  H          0.43830000       0.37460000       0.92500000
    64  H          0.56170000       0.62540000       0.07500000
    65  H          0.26900000       0.24900000       0.85290000
    66  H          0.73100000       0.75100000       0.14710000
