data_HAFZOE
_symmetry_space_group_name_H-M    'P1'
_symmetry_Int_Tables_number       1
loop_
_symmetry_equiv_pos_site_id
_symmetry_equiv_pos_as_xyz
1 x,y,z
_cell_length_a                   11.3943
_cell_length_b                   17.5493
_cell_length_c                   14.2372
_cell_angle_alpha                90.0
_cell_angle_beta                 100.53715
_cell_angle_gamma                90.0
loop_
_atom_site_label
_atom_site_type_symbol
_atom_site_fract_x
_atom_site_fract_y
_atom_site_fract_z
     1  I          0.28894900       0.16857500       0.40095700
     2  I          0.21105100       0.66857500       0.09904300
     3  I          0.71105100       0.83142500       0.59904300
     4  I          0.78894900       0.33142500       0.90095700
     5  I          0.48859700       0.33520500       0.55082600
     6  I          0.01140300       0.83520500       0.94917400
     7  I          0.51140300       0.66479500       0.44917400
     8  I         -0.01140300       0.16479500       0.05082600
     9  I          0.26159800       0.51104400       0.55657600
    10  I          0.23840200       0.01104400       0.94342400
    11  I          0.73840200       0.48895600       0.44342400
    12  I          0.76159800       0.98895600       0.05657600
    13  I          0.04845800       0.09564400       0.56028600
    14  I          0.45154200       0.59564400       0.93971400
    15  I          0.95154200       0.90435600       0.43971400
    16  I          0.54845800       0.40435600       0.06028600
    17  I          0.37894800       0.15691500       0.70675600
    18  I          0.12105200       0.65691500       0.79324400
    19  I          0.62105200       0.84308500       0.29324400
    20  I          0.87894800       0.34308500       0.20675600
    21  I          0.35850700       0.37660500       0.79946500
    22  I          0.14149300       0.87660500       0.70053500
    23  I          0.64149300       0.62339500       0.20053500
    24  I          0.85850700       0.12339500       0.29946500
    25  I          0.00648700       0.44799400       0.71034600
    26  I          0.49351300       0.94799400       0.78965400
    27  I         -0.00648700       0.55200600       0.28965400
    28  I          0.50648700       0.05200600       0.21034600
    29  I          0.82425300       0.27308500       0.56113700
    30  I          0.67574700       0.77308500       0.93886300
    31  I          0.17574700       0.72691500       0.43886300
    32  I          0.32425300       0.22691500       0.06113700
    33  I          0.07825700       0.22767500       0.80275500
    34  I          0.42174300       0.72767500       0.69724500
    35  I          0.92174300       0.77232500       0.19724500
    36  I          0.57825700       0.27232500       0.30275500
    37  C          0.19019000       0.33396000       0.47517000
    38  C          0.30981000       0.83396000       0.02483000
    39  C          0.80981000       0.66604000       0.52483000
    40  C          0.69019000       0.16604000       0.97517000
    41  H          0.21060000       0.35570000       0.40750000
    42  H          0.28940000       0.85570000       0.09250000
    43  H          0.78940000       0.64430000       0.59250000
    44  H          0.71060000       0.14430000       0.90750000
    45  C          0.08001000       0.27406000       0.47527000
    46  C          0.41999000       0.77406000       0.02473000
    47  C          0.91999000       0.72594000       0.52473000
    48  C          0.58001000       0.22594000       0.97527000
    49  H          0.02480000       0.25420000       0.40810000
    50  H          0.47520000       0.75420000       0.09190000
    51  H          0.97520000       0.74580000       0.59190000
    52  H          0.52480000       0.24580000       0.90810000
    53  B          0.22555000       0.23884000       0.50144000
    54  B          0.27445000       0.73884000      -0.00144000
    55  B          0.77445000       0.76116000       0.49856000
    56  B          0.72555000       0.26116000       0.00144000
    57  B          0.30766000       0.31613000       0.56624000
    58  B          0.19234000       0.81613000       0.93376000
    59  B          0.69234000       0.68387000       0.43376000
    60  B          0.80766000       0.18387000       0.06624000
    61  B          0.20666000       0.39613000       0.57004000
    62  B          0.29334000       0.89613000       0.92996000
    63  B          0.79334000       0.60387000       0.42996000
    64  B          0.70666000       0.10387000       0.07004000
    65  B          0.06435000       0.36623000       0.50884000
    66  B          0.43565000       0.86623000      -0.00884000
    67  B          0.93565000       0.63377000       0.49116000
    68  B          0.56435000       0.13377000       0.00884000
    69  H          0.00210000       0.40710000       0.46740000
    70  H          0.49790000       0.90710000       0.03260000
    71  H         -0.00210000       0.59290000       0.53260000
    72  H          0.50210000       0.09290000       0.96740000
    73  B          0.11091000       0.21107000       0.56838000
    74  B          0.38909000       0.71107000       0.93162000
    75  B          0.88909000       0.78893000       0.43162000
    76  B          0.61091000       0.28893000       0.06838000
    77  B          0.25851100       0.23777000       0.63138000
    78  B          0.24148900       0.73777000       0.86862000
    79  B          0.74148900       0.76223000       0.36862000
    80  B          0.75851100       0.26223000       0.13138000
    81  B          0.24651000       0.33537000       0.67189000
    82  B          0.25349000       0.83537000       0.82811000
    83  B          0.75349000       0.66463000       0.32811000
    84  B          0.74651000       0.16463000       0.17189000
    85  B          0.09601000       0.36566000       0.63478000
    86  B          0.40399000       0.86566000       0.86522000
    87  B          0.90399000       0.63434000       0.36522000
    88  B          0.59601000       0.13434000       0.13478000
    89  B          0.01091000       0.28956000       0.57068000
    90  B          0.48909000       0.78956000       0.92932000
    91  B         -0.01091000       0.71044000       0.42932000
    92  B          0.51091000       0.21044000       0.07068000
    93  B          0.12561000       0.26896000       0.67307000
    94  B          0.37439000       0.76896000       0.82693000
    95  B          0.87439000       0.73104000       0.32693000
    96  B          0.62561000       0.23104000       0.17307000
    97  O          0.70771000       0.10176000       0.78087000
    98  O          0.79229000       0.60176000       0.71913000
    99  O          0.29229000       0.89824000       0.21913000
   100  O          0.20771000       0.39824000       0.28087000
   101  O          0.74768000       0.04365000       0.65266000
   102  O          0.75232000       0.54365000       0.84734000
   103  O          0.25232000       0.95635000       0.34734000
   104  O          0.24768000       0.45635000       0.15266000
   105  C          0.77171100       0.06097000       0.74378000
   106  C          0.72828900       0.56097000       0.75622000
   107  C          0.22828900       0.93903000       0.25622000
   108  C          0.27171100       0.43903000       0.24378000
   109  C          0.88121300       0.02399000       0.79531100
   110  C          0.61878700       0.52399000       0.70468900
   111  C          0.11878700       0.97601000       0.20468900
   112  C          0.38121300       0.47601000       0.29531100
   113  H          0.89630000       0.04060000       0.86060000
   114  H          0.60370000       0.54060000       0.63940000
   115  H          0.10370000       0.95940000       0.13940000
   116  H          0.39630000       0.45940000       0.36060000
   117  H          0.94750000       0.03740000       0.76570000
   118  H          0.55250000       0.53740000       0.73430000
   119  H          0.05250000       0.96260000       0.23430000
   120  H          0.44750000       0.46260000       0.26570000
   121  H          0.87080000       0.96960000       0.79320000
   122  H          0.62920000       0.46960000       0.70680000
   123  H          0.12920000       0.03040000       0.20680000
   124  H          0.37080000       0.53040000       0.29320000
   125  C          0.64411200       0.07748000       0.59579000
   126  C          0.85588800       0.57748000       0.90421000
   127  C          0.35588800       0.92252000       0.40421000
   128  C          0.14411200       0.42252000       0.09579000
   129  H          0.64290000       0.13170000       0.60800000
   130  H          0.85710000       0.63170000       0.89200000
   131  H          0.35710000       0.86830000       0.39200000
   132  H          0.14290000       0.36830000       0.10800000
   133  H          0.57240000       0.05500000       0.61150000
   134  H          0.92760000       0.55500000       0.88850000
   135  H          0.42760000       0.94500000       0.38850000
   136  H          0.07240000       0.44500000       0.11150000
   137  C          0.64881000       0.06357000       0.49374000
   138  C          0.85119000       0.56357000       0.00626000
   139  C          0.35119000       0.93643000       0.50626000
   140  C          0.14881000       0.43643000      -0.00626000
   141  H          0.72040000       0.08540000       0.47880000
   142  H          0.77960000       0.58540000       0.02120000
   143  H          0.27960000       0.91460000       0.52120000
   144  H          0.22040000       0.41460000       0.97880000
   145  H          0.58060000       0.08640000       0.45420000
   146  H          0.91940000       0.58640000       0.04580000
   147  H          0.41940000       0.91360000       0.54580000
   148  H          0.08060000       0.41360000       0.95420000
   149  H          0.64850000       0.00960000       0.48190000
   150  H          0.85150000       0.50960000       0.01810000
   151  H          0.35150000       0.99040000       0.51810000
   152  H          0.14850000       0.49040000       0.98190000
