data_HAJXOG
_symmetry_space_group_name_H-M    'P1'
_symmetry_Int_Tables_number       1
loop_
_symmetry_equiv_pos_site_id
_symmetry_equiv_pos_as_xyz
1 x,y,z
_cell_length_a                   7.63562
_cell_length_b                   8.28782
_cell_length_c                   11.37724
_cell_angle_alpha                87.09301
_cell_angle_beta                 80.55601
_cell_angle_gamma                81.16701
loop_
_atom_site_label
_atom_site_type_symbol
_atom_site_fract_x
_atom_site_fract_y
_atom_site_fract_z
     1  Cl         0.20217800       0.77423300       0.54257500
     2  Cl         0.79782200       0.22576700       0.45742500
     3  S          0.36981200       0.72339300       0.00801500
     4  S          0.63018800       0.27660700      -0.00801500
     5  O          0.22938000       0.63228000      -0.00550840
     6  O          0.77062000       0.36772000       0.00550840
     7  O          0.43288000       0.69012810       0.12226150
     8  O          0.56712000       0.30987190       0.87773850
     9  O          0.51648000       0.70868000       0.90726150
    10  O          0.48352000       0.29132000       0.09273850
    11  O          0.29037000       0.90888000       0.01246180
    12  O          0.70963000       0.09112000       0.98753820
    13  H          0.28050000       0.94860000       0.94530000
    14  H          0.71950000       0.05140000       0.05470000
    15  N          0.83607000       0.52887000       0.77775190
    16  N          0.16393000       0.47113000       0.22224810
    17  C          0.82257000       0.54697000       0.64682000
    18  C          0.17743000       0.45303000       0.35318000
    19  H          0.72360000       0.55670000       0.82330000
    20  H          0.27640000       0.44330000       0.17670000
    21  N          0.54247000       0.75528000       0.66182000
    22  N          0.45753000       0.24472000       0.33818000
    23  C          0.63337000       0.58917000       0.62132000
    24  C          0.36663000       0.41083000       0.37868000
    25  H          0.87160000       0.42760000       0.78830000
    26  H          0.12840000       0.57240000       0.21170000
    27  N          0.89387000       0.91458000       0.74032000
    28  N          0.10613000       0.08542000       0.25968000
    29  C          0.64046000       0.89807000       0.61832000
    30  C          0.35954000       0.10193000       0.38168000
    31  H          0.06940000       0.60670000       0.76030000
    32  H          0.93060000       0.39330000       0.23970000
    33  C          0.70956000       0.97957000       0.71322000
    34  C          0.29044000       0.02043000       0.28678000
    35  H          0.00430000       0.56070000       0.89120000
    36  H         -0.00430000       0.43930000       0.10880000
    37  C          0.90876000       0.79557000       0.84462000
    38  C          0.09124000       0.20443000       0.15538000
    39  H         -0.00730000       0.82670000       0.88220000
    40  H          0.00730000       0.17330000       0.11780000
    41  C          0.97206000       0.61787000       0.81743000
    42  C          0.02794000       0.38213000       0.18257000
    43  H          0.78960000       0.80670000       0.89730000
    44  H          0.21040000       0.19330000       0.10270000
    45  H          0.97560000       0.86870000       0.67530000
    46  H          0.02440000       0.13130000       0.32470000
    47  H          0.94360000       0.00430000       0.76120000
    48  H          0.05640000      -0.00430000       0.23880000
    49  H          0.62660000       0.97770000       0.79230000
    50  H          0.37340000       0.02230000       0.20770000
    51  H          0.72270000       0.07930000       0.68220000
    52  H          0.27730000       0.92070000       0.31780000
    53  H          0.55560000      -0.01530000       0.58820000
    54  H          0.44440000       0.01530000       0.41180000
    55  H          0.72960000       0.86770000       0.55620000
    56  H          0.27040000       0.13230000       0.44380000
    57  H          0.43150000       0.76960000       0.63830000
    58  H          0.56850000       0.23040000       0.36170000
    59  H          0.51360000       0.75370000       0.74230000
    60  H          0.48640000       0.24630000       0.25770000
    61  H          0.62460000       0.59170000       0.53530000
    62  H          0.37540000       0.40830000       0.46470000
    63  H          0.55860000       0.50970000       0.65420000
    64  H          0.44140000       0.49030000       0.34580000
    65  H          0.87170000       0.43770000       0.60920000
    66  H          0.12830000       0.56230000       0.39080000
    67  H          0.89260000       0.62670000       0.61020000
    68  H          0.10740000       0.37330000       0.38980000
    69  S          0.21696800       0.18347300       0.76069500
    70  S          0.78303200       0.81652700       0.23930500
    71  O          0.02442000       0.20984810       0.75573160
    72  O          0.97558000       0.79015190       0.24426840
    73  O          0.27612000       0.01264810       0.79391150
    74  O          0.72388000      -0.01264810       0.20608850
    75  O          0.32662000       0.23888000       0.65606160
    76  O          0.67338000       0.76112000       0.34393840
    77  O          0.23163000       0.28858000       0.86792160
    78  O          0.76837000       0.71142000       0.13207840
    79  H          0.34760000       0.29650000       0.86540000
    80  H          0.65240000       0.70350000       0.13460000
