data_HAMMOB
_symmetry_space_group_name_H-M    'P1'
_symmetry_Int_Tables_number       1
loop_
_symmetry_equiv_pos_site_id
_symmetry_equiv_pos_as_xyz
1 x,y,z
_cell_length_a                   12.17014
_cell_length_b                   7.92833
_cell_length_c                   14.32284
_cell_angle_alpha                90.0
_cell_angle_beta                 98.89801
_cell_angle_gamma                90.0
loop_
_atom_site_label
_atom_site_type_symbol
_atom_site_fract_x
_atom_site_fract_y
_atom_site_fract_z
     1  I          0.68526200       0.43826200       0.34599200
     2  I          0.31473800       0.93826200       0.15400800
     3  I          0.31473800       0.56173800       0.65400800
     4  I          0.68526200       0.06173800       0.84599200
     5  I          0.68508200       0.91268200       0.36555200
     6  I          0.31491800       0.41268200       0.13444800
     7  I          0.31491800       0.08731800       0.63444800
     8  I          0.68508200       0.58731800       0.86555200
     9  F          0.44702900       0.00806130       0.40403800
    10  F          0.55297100       0.50806130       0.09596200
    11  F          0.55297100      -0.00806130       0.59596200
    12  F          0.44702900       0.49193870       0.90403800
    13  F          0.26300900       0.83115140       0.41833800
    14  F          0.73699100       0.33115140       0.08166200
    15  F          0.73699100       0.16884860       0.58166200
    16  F          0.26300900       0.66884860       0.91833800
    17  F          0.26260900       0.49045140       0.40307800
    18  F          0.73739100      -0.00954860       0.09692200
    19  F          0.73739100       0.50954860       0.59692200
    20  F          0.26260900       0.00954860       0.90307800
    21  F          0.44736100       0.32658130       0.37401900
    22  F          0.55263900       0.82658130       0.12598100
    23  F          0.55263900       0.67341870       0.62598100
    24  F          0.44736100       0.17341870       0.87401900
    25  C          0.54789150       0.58302000       0.37247120
    26  C          0.45210850       0.08302000       0.12752880
    27  C          0.45210850       0.41698000       0.62752880
    28  C          0.54789150       0.91698000       0.87247120
    29  C          0.54812150       0.75892000       0.38083120
    30  C          0.45187850       0.25892000       0.11916880
    31  C          0.45187850       0.24108000       0.61916880
    32  C          0.54812150       0.74108000       0.88083120
    33  C          0.45180160       0.83932000       0.39706130
    34  C          0.54819840       0.33932000       0.10293870
    35  C          0.54819840       0.16068000       0.60293870
    36  C          0.45180160       0.66068000       0.89706130
    37  C          0.35618150       0.75052000       0.40477120
    38  C          0.64381850       0.25052000       0.09522880
    39  C          0.64381850       0.24948000       0.59522880
    40  C          0.35618150       0.74948000       0.90477120
    41  C          0.35571150       0.57712000       0.39634130
    42  C          0.64428850       0.07712000       0.10365870
    43  C          0.64428850       0.42288000       0.60365870
    44  C          0.35571150       0.92288000       0.89634130
    45  C          0.45121160       0.49552000       0.38086130
    46  C          0.54878840      -0.00448000       0.11913870
    47  C          0.54878840       0.50448000       0.61913870
    48  C          0.45121160       0.00448000       0.88086130
    49  S          0.11856400       0.82437600       0.68872300
    50  S          0.88143600       0.32437600       0.81127700
    51  S          0.88143600       0.17562400       0.31127700
    52  S          0.11856400       0.67562400       0.18872300
    53  N          0.91661870       0.80222000       0.58644110
    54  N          0.08338130       0.30222000       0.91355890
    55  N          0.08338130       0.19778000       0.41355890
    56  N          0.91661870       0.69778000       0.08644110
    57  N          0.06267140       0.74832000       0.50747110
    58  N          0.93732860       0.24832000      -0.00747110
    59  N          0.93732860       0.25168000       0.49252890
    60  N          0.06267140       0.75168000       0.00747110
    61  C          0.02646150       0.78952000       0.58804130
    62  C          0.97353850       0.28952000       0.91195870
    63  C          0.97353850       0.21048000       0.41195870
    64  C          0.02646150       0.71048000       0.08804130
    65  C         -0.00758170       0.71483000       0.41781140
    66  C          0.00758170       0.21483000       0.08218860
    67  C          0.00758170       0.28517000       0.58218860
    68  C         -0.00758170       0.78517000       0.91781140
    69  H          0.95265000       0.81545400       0.39603600
    70  H          0.04735000       0.31545400       0.10396400
    71  H          0.04735000       0.18454600       0.60396400
    72  H          0.95265000       0.68454600       0.89603600
    73  H          0.94040500       0.62704400       0.42600500
    74  H          0.05959500       0.12704400       0.07399500
    75  H          0.05959500       0.37295600       0.57399500
    76  H          0.94040500       0.87295600       0.92600500
    77  H          0.03778800       0.67977600       0.37213500
    78  H          0.96221200       0.17977600       0.12786500
    79  H          0.96221200       0.32022400       0.62786500
    80  H          0.03778800       0.82022400       0.87213500
    81  C          0.86447840       0.83763000       0.66947140
    82  C          0.13552160       0.33763000       0.83052860
    83  C          0.13552160       0.16237000       0.33052860
    84  C          0.86447840       0.66237000       0.16947140
    85  H          0.78542700       0.84638800       0.65102400
    86  H          0.21457300       0.34638800       0.84897600
    87  H          0.21457300       0.15361200       0.34897600
    88  H          0.78542700       0.65361200       0.15102400
    89  H          0.89287400       0.94189900       0.69753200
    90  H          0.10712600       0.44189900       0.80246800
    91  H          0.10712600       0.05810100       0.30246800
    92  H          0.89287400       0.55810100       0.19753200
    93  H          0.88083400       0.74787700       0.71447100
    94  H          0.11916600       0.24787700       0.78552900
    95  H          0.11916600       0.25212300       0.28552900
    96  H          0.88083400       0.75212300       0.21447100
    97  H          0.87398200       0.78730000       0.53481300
    98  H          0.12601800       0.28730000       0.96518700
    99  H          0.12601800       0.21270000       0.46518700
   100  H          0.87398200       0.71270000       0.03481300
   101  H          0.13081400       0.74630000       0.51001700
   102  H          0.86918600       0.24630000       0.98998300
   103  H          0.86918600       0.25370000       0.48998300
   104  H          0.13081400       0.75370000       0.01001700
