data_HAMPIY
_symmetry_space_group_name_H-M    'P1'
_symmetry_Int_Tables_number       1
loop_
_symmetry_equiv_pos_site_id
_symmetry_equiv_pos_as_xyz
1 x,y,z
_cell_length_a                   7.8134
_cell_length_b                   30.67712
_cell_length_c                   9.0855
_cell_angle_alpha                90.0
_cell_angle_beta                 113.42915
_cell_angle_gamma                90.0
loop_
_atom_site_label
_atom_site_type_symbol
_atom_site_fract_x
_atom_site_fract_y
_atom_site_fract_z
     1  I          0.82019400       0.23695200       0.18833300
     2  I          0.17980600       0.73695200       0.31166700
     3  I          0.17980600       0.76304800       0.81166700
     4  I          0.82019400       0.26304800       0.68833300
     5  I          0.91809300       0.33753200       0.39053300
     6  I          0.08190700       0.83753200       0.10946700
     7  I          0.08190700       0.66246800       0.60946700
     8  I          0.91809300       0.16246800       0.89053300
     9  I          0.32674400       0.24975200       0.10720300
    10  I          0.67325600       0.74975200       0.39279700
    11  I          0.67325600       0.75024800       0.89279700
    12  I          0.32674400       0.25024800       0.60720300
    13  I          0.42633300       0.34759200       0.32731300
    14  I          0.57366700       0.84759200       0.17268700
    15  I          0.57366700       0.65240800       0.67268700
    16  I          0.42633300       0.15240800       0.82731300
    17  C          0.71255000       0.29019110       0.27024000
    18  C          0.28745000       0.79019110       0.22976000
    19  C          0.28745000       0.70980890       0.72976000
    20  C          0.71255000       0.20980890       0.77024000
    21  C          0.53405000       0.29459110       0.24234000
    22  C          0.46595000       0.79459110       0.25766000
    23  C          0.46595000       0.70540890       0.75766000
    24  C          0.53405000       0.20540890       0.74234000
    25  S          0.04644150       0.39442400       0.84076130
    26  S          0.95355850       0.89442400       0.65923870
    27  S          0.95355850       0.60557600       0.15923870
    28  S          0.04644150       0.10557600       0.34076130
    29  N          0.69765000       0.40400100       0.74334000
    30  N          0.30235000       0.90400100       0.75666000
    31  N          0.30235000       0.59599900       0.25666000
    32  N          0.69765000       0.09599900       0.24334000
    33  N          0.82485000       0.44303110       0.58814000
    34  N          0.17515000       0.94303110       0.91186000
    35  N          0.17515000       0.55696890       0.41186000
    36  N          0.82485000       0.05696890       0.08814000
    37  C          0.84015000       0.41675120       0.70795000
    38  C          0.15985000       0.91675120       0.79205000
    39  C          0.15985000       0.58324880       0.29205000
    40  C          0.84015000       0.08324880       0.20795000
    41  C          0.74466000       0.37579120       0.87455000
    42  C          0.25534000       0.87579120       0.62545000
    43  C          0.25534000       0.62420880       0.12545000
    44  C          0.74466000       0.12420880       0.37455000
    45  C          0.92696000       0.36744130       0.94025000
    46  C          0.07304000       0.86744130       0.55975000
    47  C          0.07304000       0.63255870       0.05975000
    48  C          0.92696000       0.13255870       0.44025000
    49  H         -0.01507300       0.34900300       0.03048100
    50  H          0.01507300       0.84900300       0.46951900
    51  H          0.01507300       0.65099700       0.96951900
    52  H         -0.01507300       0.15099700       0.53048100
    53  C          0.58967000       0.35962150       0.91816000
    54  C          0.41033000       0.85962150       0.58184000
    55  C          0.41033000       0.64037850       0.08184000
    56  C          0.58967000       0.14037850       0.41816000
    57  H          0.48683700       0.34900500       0.82146700
    58  H          0.51316300       0.84900500       0.67853300
    59  H          0.51316300       0.65099500       0.17853300
    60  H          0.48683700       0.15099500       0.32146700
    61  H          0.54500800       0.38347900       0.96533400
    62  H          0.45499200       0.88347900       0.53466600
    63  H          0.45499200       0.61652100       0.03466600
    64  H          0.54500800       0.11652100       0.46533400
    65  H          0.63561900       0.33580300      -0.00413700
    66  H          0.36438100       0.83580300       0.50413700
    67  H          0.36438100       0.66419700       0.00413700
    68  H          0.63561900       0.16419700       0.49586300
    69  H          0.58470000       0.41431600       0.68760000
    70  H          0.41530000       0.91431600       0.81240000
    71  H          0.41530000       0.58568400       0.31240000
    72  H          0.58470000       0.08568400       0.18760000
    73  H          0.71780000       0.45101700       0.52470000
    74  H          0.28220000       0.95101700       0.97530000
    75  H          0.28220000       0.54898300       0.47530000
    76  H          0.71780000       0.04898300       0.02470000
    77  H          0.92080000       0.44761500       0.55560000
    78  H          0.07920000       0.94761500       0.94440000
    79  H          0.07920000       0.55238500       0.44440000
    80  H          0.92080000       0.05238500       0.05560000
    81  I          0.36445300       0.47479200       0.19862300
    82  I          0.63554700       0.97479200       0.30137700
    83  I          0.63554700       0.52520800       0.80137700
    84  I          0.36445300       0.02520800       0.69862300
    85  I          0.17936300       0.53013200       0.82702700
    86  I          0.82063700       0.03013200       0.67297300
    87  I          0.82063700       0.46986800       0.17297300
    88  I          0.17936300       0.96986800       0.32702700
    89  C          0.41946000       0.50099130       0.00565000
    90  C          0.58054000       0.00099130       0.49435000
    91  C          0.58054000       0.49900870      -0.00565000
    92  C          0.41946000      -0.00099130       0.50565000
    93  I          0.23358300       0.42935200       0.50201300
    94  I          0.76641700       0.92935200      -0.00201300
    95  I          0.76641700       0.57064800       0.49798700
    96  I          0.23358300       0.07064800       0.00201300
