data_HAQJIW
_symmetry_space_group_name_H-M    'P1'
_symmetry_Int_Tables_number       1
loop_
_symmetry_equiv_pos_site_id
_symmetry_equiv_pos_as_xyz
1 x,y,z
_cell_length_a                   8.20163
_cell_length_b                   11.18314
_cell_length_c                   17.43415
_cell_angle_alpha                98.5773
_cell_angle_beta                 93.9933
_cell_angle_gamma                109.7043
loop_
_atom_site_label
_atom_site_type_symbol
_atom_site_fract_x
_atom_site_fract_y
_atom_site_fract_z
     1  I         -0.00191200       0.82086200       0.32225200
     2  I          0.00191200       0.17913800       0.67774800
     3  N          0.67308000       0.90809150       0.53289900
     4  N          0.32692000       0.09190850       0.46710100
     5  C          0.72158000      -0.01061820       0.48265100
     6  C          0.27842000       0.01061820       0.51734900
     7  H          0.69058800       0.06448000       0.48910500
     8  H          0.30941200       0.93552000       0.51089500
     9  C          0.81478000       0.96935180       0.42171100
    10  C          0.18522000       0.03064820       0.57828900
    11  H          0.84712700       0.02882500       0.38699200
    12  H          0.15287300       0.97117500       0.61300800
    13  C          0.85918000       0.85907170       0.41325100
    14  C          0.14082000       0.14092830       0.58674900
    15  C          0.81237000       0.77465180       0.46528110
    16  C          0.18763000       0.22534820       0.53471890
    17  H          0.84345300       0.69962200       0.46088200
    18  H          0.15654700       0.30037800       0.53911800
    19  C          0.71887000       0.80352180       0.52380110
    20  C          0.28113000       0.19647820       0.47619890
    21  H          0.68541100       0.74585000       0.55948800
    22  H          0.31458900       0.25415000       0.44051200
    23  I          0.41719800       0.32247200       0.85590200
    24  I          0.58280200       0.67752800       0.14409800
    25  N          0.63078000       0.42005150       0.61116900
    26  N          0.36922000       0.57994850       0.38883100
    27  C          0.57898000       0.50385180       0.65776100
    28  C          0.42102000       0.49614820       0.34223900
    29  H          0.58516800       0.58265500       0.64175600
    30  H          0.41483200       0.41734500       0.35824400
    31  C          0.51698000       0.48048170       0.72818100
    32  C          0.48302000       0.51951830       0.27181900
    33  H          0.48268100       0.54197100       0.76024800
    34  H          0.51731900       0.45802900       0.23975200
    35  C          0.50688000       0.36344170       0.75018900
    36  C          0.49312000       0.63655830       0.24981100
    37  C          0.55887000       0.27634170       0.70216110
    38  C          0.44113000       0.72365830       0.29783890
    39  H          0.55296000       0.19620400       0.71616100
    40  H          0.44704000       0.80379600       0.28383900
    41  C          0.61968000       0.30890180       0.63337100
    42  C          0.38032000       0.69109820       0.36662900
    43  H          0.65516800       0.24915600       0.60033800
    44  H          0.34483200       0.75084400       0.39966200
    45  Cl         0.93378300       0.85754500       0.73505300
    46  Cl         0.06621700       0.14245500       0.26494700
    47  Cl         0.82737300       0.60359600       0.97779300
    48  Cl         0.17262700       0.39640400       0.02220700
    49  O          0.06153180       0.66175120       0.66954700
    50  O          0.93846820       0.33824880       0.33045300
    51  O          0.18172000       0.70682140       0.53182800
    52  O          0.81828000       0.29317860       0.46817200
    53  O          0.25752000       0.53054130       0.52114800
    54  O          0.74248000       0.46945870       0.47885200
    55  H          0.29302200       0.55308000       0.47965300
    56  H          0.70697800       0.44692000       0.52034700
    57  C          0.94128000       0.72935170       0.77844100
    58  C          0.05872000       0.27064830       0.22155900
    59  C          0.88378000       0.71851180       0.85097100
    60  C          0.11622000       0.28148820       0.14902900
    61  H          0.83826300       0.77939800       0.87628100
    62  H          0.16173700       0.22060200       0.12371900
    63  C          0.89388000       0.61761190       0.88564100
    64  C          0.10612000       0.38238810       0.11435900
    65  C          0.96027000       0.52841190       0.84945110
    66  C          0.03973000       0.47158810       0.15054890
    67  H          0.96762500       0.45999400       0.87426900
    68  H          0.03237500       0.54000600       0.12573100
    69  C          0.01623000       0.53969180       0.77629110
    70  C         -0.01623000       0.46030820       0.22370890
    71  H          0.06014800       0.47790100       0.75084600
    72  H          0.93985200       0.52209900       0.24915400
    73  C          0.00812000       0.64114170       0.74026100
    74  C         -0.00812000       0.35885830       0.25973900
    75  C          0.12702000       0.57073170       0.63027100
    76  C          0.87298000       0.42926830       0.36972900
    77  H          0.03374700       0.48442700       0.61760200
    78  H          0.96625300       0.51557300       0.38239800
    79  H          0.22437700       0.56469200       0.66445600
    80  H          0.77562300       0.43530800       0.33554400
    81  C          0.19072000       0.61300170       0.55561100
    82  C          0.80928000       0.38699830       0.44438900
    83  Cl         0.42721700       0.65753500       0.92503300
    84  Cl         0.57278300       0.34246500       0.07496700
    85  Cl         0.11802800       0.90683600       0.12015300
    86  Cl         0.88197200       0.09316400       0.87984700
    87  O          0.41807180       0.83897130       0.82735800
    88  O          0.58192820       0.16102870       0.17264200
    89  O          0.53649190       0.96673130       0.65830800
    90  O          0.46350810       0.03326870       0.34169200
    91  H          0.57336900       0.94002300       0.61785500
    92  H          0.42663100       0.05997700       0.38214500
    93  O          0.50308180       0.77006130       0.68550800
    94  O          0.49691820       0.22993870       0.31449200
    95  C          0.34302000       0.77905180       0.94675100
    96  C          0.65698000       0.22094820       0.05324900
    97  C          0.27152000       0.79088190       0.01574100
    98  C          0.72848000       0.20911810       0.98425900
    99  H          0.26522700       0.73168600       0.05023900
   100  H          0.73477300       0.26831400       0.94976100
   101  C          0.20912000       0.89165190       0.03336100
   102  C          0.79088000       0.10834810       0.96663900
   103  C          0.21973000       0.97863190       0.98424110
   104  C          0.78027000       0.02136810       0.01575890
   105  H          0.17956500       0.04838700      -0.00197600
   106  H          0.82043500       0.95161300       0.00197600
   107  C          0.28913000       0.96439190       0.91429110
   108  C          0.71087000       0.03560810       0.08570890
   109  H          0.29457800       0.02358500       0.87987200
   110  H          0.70542200       0.97641500       0.12012800
   111  C          0.35082000       0.86316170       0.89470100
   112  C          0.64918000       0.13683830       0.10529900
   113  C          0.43002000       0.92551180       0.77457100
   114  C          0.56998000       0.07448820       0.22542900
   115  H          0.51192900       0.01279700       0.79909600
   116  H          0.48807100      -0.01279700       0.20090400
   117  H          0.31404000       0.93133900       0.76106900
   118  H          0.68596000       0.06866100       0.23893100
   119  C          0.49482000       0.87639170       0.70140100
   120  C          0.50518000       0.12360830       0.29859900
