data_HARCAI
_symmetry_space_group_name_H-M    'P1'
_symmetry_Int_Tables_number       1
loop_
_symmetry_equiv_pos_site_id
_symmetry_equiv_pos_as_xyz
1 x,y,z
_cell_length_a                   15.9303
_cell_length_b                   4.08008
_cell_length_c                   21.0064
_cell_angle_alpha                90.0
_cell_angle_beta                 109.473
_cell_angle_gamma                90.0
loop_
_atom_site_label
_atom_site_type_symbol
_atom_site_fract_x
_atom_site_fract_y
_atom_site_fract_z
     1  Cl         0.40898600       0.14192000       0.04708400
     2  Cl         0.09101400       0.64192000       0.45291600
     3  Cl         0.59101400       0.85808000       0.95291600
     4  Cl         0.90898600       0.35808000       0.54708400
     5  Cl         0.72527600       0.74632000       0.14333500
     6  Cl         0.77472400       0.24632000       0.35666500
     7  Cl         0.27472400       0.25368000       0.85666500
     8  Cl         0.22527600       0.75368000       0.64333500
     9  O          0.38359140       0.36185000       0.16872900
    10  O          0.11640860       0.86185000       0.33127100
    11  O          0.61640860       0.63815000       0.83127100
    12  O          0.88359140       0.13815000       0.66872900
    13  O          0.33497130       0.56256000       0.31891900
    14  O          0.16502870       0.06256000       0.18108100
    15  O          0.66502870       0.43744000       0.68108100
    16  O          0.83497130       0.93744000       0.81891900
    17  H          0.35623600       0.51109300       0.35882600
    18  H          0.14376400       0.01109300       0.14117400
    19  H          0.64376400       0.48890700       0.64117400
    20  H          0.85623600      -0.01109300       0.85882600
    21  O          0.43828160       0.21975000       0.30635100
    22  O          0.06171840       0.71975000       0.19364900
    23  O          0.56171840       0.78025000       0.69364900
    24  O          0.93828160       0.28025000       0.80635100
    25  C          0.46492190       0.45887000       0.16710140
    26  C          0.03507810       0.95887000       0.33289860
    27  C          0.53507810       0.54113000       0.83289860
    28  C          0.96492190       0.04113000       0.66710140
    29  C          0.48575190       0.36027000       0.11067130
    30  C          0.01424810       0.86027000       0.38932870
    31  C          0.51424810       0.63973000       0.88932870
    32  C          0.98575190       0.13973000       0.61067130
    33  C          0.34732000       0.53497000       0.21245130
    34  C          0.15268000       0.03497000       0.28754870
    35  C          0.65268000       0.46503000       0.78754870
    36  C          0.84732000       0.96503000       0.71245130
    37  H          0.28295500       0.51608000       0.19499300
    38  H          0.21704500       0.01608000       0.30500700
    39  H          0.71704500       0.48392000       0.80500700
    40  H          0.78295500      -0.01608000       0.69499300
    41  H          0.36215900       0.76527600       0.21201900
    42  H          0.13784100       0.26527600       0.28798100
    43  H          0.63784100       0.23472400       0.78798100
    44  H          0.86215900       0.73472400       0.71201900
    45  C          0.37992000       0.41488000       0.28403140
    46  C          0.12008000       0.91488000       0.21596860
    47  C          0.62008000       0.58512000       0.71596860
    48  C          0.87992000       0.08512000       0.78403140
    49  C          0.56612000       0.44207000       0.10362150
    50  C          0.93388000       0.94207000       0.39637850
    51  C          0.43388000       0.55793000       0.89637850
    52  C          0.06612000       0.05793000       0.60362150
    53  H          0.57999100       0.37272000       0.06612200
    54  H          0.92000900       0.87272000       0.43387800
    55  H          0.42000900       0.62728000       0.93387800
    56  H          0.07999100       0.12728000       0.56612200
    57  C          0.52582000       0.64447000       0.21585150
    58  C          0.97418000       0.14447000       0.28414850
    59  C          0.47418000       0.35553000       0.78414850
    60  C          0.02582000       0.85553000       0.71585150
    61  H          0.51254100       0.71324100       0.25362200
    62  H          0.98745900       0.21324100       0.24637800
    63  H          0.48745900       0.28675900       0.74637800
    64  H          0.01254100       0.78675900       0.75362200
    65  C          0.62552000       0.62767000       0.15298160
    66  C          0.87448000       0.12767000       0.34701840
    67  C          0.37448000       0.37233000       0.84701840
    68  C          0.12552000       0.87233000       0.65298160
    69  C          0.60622000       0.72878000       0.20907160
    70  C          0.89378000       0.22878000       0.29092840
    71  C          0.39378000       0.27122000       0.79092840
    72  C          0.10622000       0.77122000       0.70907160
    73  H          0.64716700       0.85308500       0.24219200
    74  H          0.85283300       0.35308500       0.25780800
    75  H          0.35283300       0.14691500       0.75780800
    76  H          0.14716700       0.64691500       0.74219200
    77  N          0.38355160       0.45196000       0.45154110
    78  N          0.11644840       0.95196000       0.04845890
    79  N          0.61644840       0.54804000       0.54845890
    80  N          0.88355160       0.04804000       0.95154110
    81  C          0.45969180       0.42707000       0.50421140
    82  C          0.04030820       0.92707000      -0.00421140
    83  C          0.54030820       0.57293000       0.49578860
    84  C          0.95969180       0.07293000       0.00421140
    85  C          0.46162000       0.26447000       0.56240150
    86  C          0.03838000       0.76447000       0.93759850
    87  C          0.53838000       0.73553000       0.43759850
    88  C          0.96162000       0.23553000       0.06240150
    89  H          0.51527400       0.23627800       0.59731200
    90  H          0.98472600       0.73627800       0.90268800
    91  H          0.48472600       0.76372200       0.40268800
    92  H          0.01527400       0.26372200       0.09731200
    93  C          0.38382000       0.14388000       0.56876160
    94  C          0.11618000       0.64388000       0.93123840
    95  C          0.61618000       0.85612000       0.43123840
    96  C          0.88382000       0.35612000       0.06876160
    97  H          0.38452800       0.03664000       0.60802900
    98  H          0.11547200       0.53664000       0.89197100
    99  H          0.61547200       0.96336000       0.39197100
   100  H          0.88452800       0.46336000       0.10802900
   101  C          0.30912000       0.33429000       0.45891160
   102  C          0.19088000       0.83429000       0.04108840
   103  C          0.69088000       0.66571000       0.54108840
   104  C          0.80912000       0.16571000       0.95891160
   105  H          0.25629300       0.35538500       0.42277500
   106  H          0.24370700       0.85538500       0.07722500
   107  H          0.74370700       0.64461500       0.57722500
   108  H          0.75629300       0.14461500       0.92277500
   109  C          0.30552000       0.18398000       0.51651160
   110  C          0.19448000       0.68398000       0.98348840
   111  C          0.69448000       0.81602000       0.48348840
   112  C          0.80552000       0.31602000       0.01651160
   113  H          0.25170400       0.11201800       0.51986900
   114  H          0.24829600       0.61201800       0.98013100
   115  H          0.74829600       0.88798200       0.48013100
   116  H          0.75170400       0.38798200       0.01986900
