data_HARHIV
_symmetry_space_group_name_H-M    'P1'
_symmetry_Int_Tables_number       1
loop_
_symmetry_equiv_pos_site_id
_symmetry_equiv_pos_as_xyz
1 x,y,z
_cell_length_a                   7.29453
_cell_length_b                   7.33914
_cell_length_c                   13.88928
_cell_angle_alpha                93.3435
_cell_angle_beta                 90.3214
_cell_angle_gamma                114.7225
loop_
_atom_site_label
_atom_site_type_symbol
_atom_site_fract_x
_atom_site_fract_y
_atom_site_fract_z
     1  Cl         0.33672400       0.33540500       0.39931200
     2  Cl         0.66327600       0.66459500       0.60068800
     3  Cl         0.95153500       0.17990500       0.73651200
     4  Cl         0.04846500       0.82009500       0.26348800
     5  O          0.53059140       0.04366120       0.16149600
     6  O          0.46940860       0.95633880       0.83850400
     7  H          0.46209800       0.92181500       0.14444800
     8  H          0.53790200       0.07818500       0.85555200
     9  O          0.63508150       0.91829130       0.28313700
    10  O          0.36491850       0.08170870       0.71686300
    11  O          0.95876130       0.29200130       0.32041600
    12  O          0.04123870       0.70799870       0.67958400
    13  C          0.64200180       0.05817160       0.23811800
    14  C          0.35799820       0.94182840       0.76188200
    15  C          0.78688180       0.27546170       0.26616900
    16  C          0.21311820       0.72453830       0.73383100
    17  H          0.83168900       0.34831600       0.20683000
    18  H          0.16831100       0.65168400       0.79317000
    19  H          0.71422700       0.34082200       0.30447600
    20  H          0.28577300       0.65917800       0.69552400
    21  C          0.94384170       0.26169160       0.41673800
    22  C          0.05615830       0.73830840       0.58326200
    23  C          0.11919170       0.27809160       0.46455800
    24  C          0.88080830       0.72190840       0.53544200
    25  C          0.12512180       0.25180160       0.56254800
    26  C          0.87487820       0.74819840       0.43745200
    27  H          0.24491500       0.26088500       0.59399300
    28  H          0.75508500       0.73911500       0.40600700
    29  C          0.94989190       0.21176160       0.61308800
    30  C          0.05010810       0.78823840       0.38691200
    31  C          0.77410190       0.19647170       0.56832900
    32  C          0.22589810       0.80352830       0.43167100
    33  H          0.65663300       0.17042900       0.60451700
    34  H          0.34336700       0.82957100       0.39548300
    35  C          0.77061180       0.21958170       0.46962900
    36  C          0.22938820       0.78041830       0.53037100
    37  H          0.64936900       0.20656100       0.43814400
    38  H          0.35063100       0.79343900       0.56185600
    39  N          0.34253160       0.67320140       0.10085700
    40  N          0.65746840       0.32679860       0.89914300
    41  C          0.30342000       0.52915180       0.16297900
    42  C          0.69658000       0.47084820       0.83702100
    43  H          0.32664700       0.56676500       0.23006200
    44  H          0.67335300       0.43323500       0.76993800
    45  C          0.23022000       0.32737170       0.13255900
    46  C          0.76978000       0.67262830       0.86744100
    47  H          0.20400100       0.22881900       0.17827900
    48  H          0.79599900       0.77118100       0.82172100
    49  C          0.19521180       0.27017170       0.03437900
    50  C          0.80478820       0.72982830       0.96562100
    51  C          0.23482000       0.42082180       0.97058100
    52  C          0.76518000       0.57917820       0.02941900
    53  H          0.21105700       0.38750200       0.90317200
    54  H          0.78894300       0.61249800       0.09682800
    55  C          0.30902000       0.61965180       0.00628900
    56  C          0.69098000       0.38034820      -0.00628900
    57  H          0.33709300       0.72149600       0.96218700
    58  H          0.66290700       0.27850400       0.03781300
    59  C          0.11535190       0.05178170      -0.00106100
    60  C          0.88464810       0.94821830       0.00106100
    61  H          0.17344500      -0.01797300       0.04002900
    62  H          0.82655500       0.01797300       0.95997100
    63  H          0.15839200       0.04169100       0.93212400
    64  H          0.84160800       0.95830900       0.06787600
