data_HARWEF
_symmetry_space_group_name_H-M    'P1'
_symmetry_Int_Tables_number       1
loop_
_symmetry_equiv_pos_site_id
_symmetry_equiv_pos_as_xyz
1 x,y,z
_cell_length_a                   9.115414
_cell_length_b                   9.955215
_cell_length_c                   13.153719
_cell_angle_alpha                102.2472
_cell_angle_beta                 93.2202
_cell_angle_gamma                112.0732
loop_
_atom_site_label
_atom_site_type_symbol
_atom_site_fract_x
_atom_site_fract_y
_atom_site_fract_z
     1  N          0.46582000       0.32852000       0.30299150
     2  N          0.53418000       0.67148000       0.69700850
     3  N          0.66382000       0.56682000       0.19685140
     4  N          0.33618000       0.43318000       0.80314860
     5  C          0.51493000       0.55493000       0.14962170
     6  C          0.48507000       0.44507000       0.85037830
     7  C          0.60843000       0.33893000       0.26270170
     8  C          0.39157000       0.66107000       0.73729830
     9  C          0.36723000       0.43693000       0.11699180
    10  C          0.63277000       0.56307000       0.88300820
    11  H          0.34820000       0.34330000       0.12870000
    12  H          0.65180000       0.65670000       0.87130000
    13  C          0.48663000       0.59463000       0.38459180
    14  C          0.51337000       0.40537000       0.61540820
    15  H          0.58610000       0.64790000       0.36770000
    16  H          0.41390000       0.35210000       0.63230000
    17  N          0.70743000       0.78943000       0.15748180
    18  N          0.29257000       0.21057000       0.84251820
    19  C          0.41603000       0.43913000       0.35430170
    20  C          0.58397000       0.56087000       0.64569830
    21  C          0.54683000       0.69533000       0.12960190
    22  C          0.45317000       0.30467000       0.87039810
    23  C          0.71023000       0.46243000       0.23025170
    24  C          0.28977000       0.53757000       0.76974830
    25  N          0.23303000       0.20553000       0.35652000
    26  N          0.76697000       0.79447000       0.64348000
    27  C          0.35333000       0.19273000       0.31322000
    28  C          0.64667000       0.80727000       0.68678000
    29  C          0.27663000       0.60543000       0.04832000
    30  C          0.72337000       0.39457000       0.95168000
    31  H          0.19300000       0.62030000       0.01560000
    32  H          0.80700000       0.37970000       0.98440000
    33  C          0.26933000       0.35813000       0.38432000
    34  C          0.73067000       0.64187000       0.61568000
    35  C          0.40243000       0.66623000       0.44082000
    36  C          0.59757000       0.33377000       0.55918000
    37  H          0.44570000       0.77030000       0.46120000
    38  H          0.55430000       0.22970000       0.53880000
    39  C          0.24973000       0.46493000       0.06632190
    40  C          0.75027000       0.53507000       0.93367810
    41  H          0.14890000       0.38790000       0.04320000
    42  H          0.85110000       0.61210000       0.95680000
    43  C          0.77333000       0.70723000       0.19332000
    44  C          0.22667000       0.29277000       0.80668000
    45  C          0.25444000       0.58754000       0.46802000
    46  C          0.74556000       0.41246000       0.53198000
    47  H          0.19990000       0.63990000       0.50460000
    48  H          0.80010000       0.36010000       0.49540000
    49  C          0.87353000       0.48594000       0.23012000
    50  C          0.12647000       0.51406000       0.76988000
    51  C          0.42414000       0.72123000       0.07822000
    52  C          0.57586000       0.27877000       0.92178000
    53  H          0.44250000       0.81390000       0.06500000
    54  H          0.55750000       0.18610000       0.93500000
    55  C          0.18843000       0.43514000       0.44202000
    56  C          0.81157000       0.56486000       0.55798000
    57  H          0.09110000       0.38320000       0.46220000
    58  H          0.90890000       0.61680000       0.53780000
    59  C          0.80984000       0.23444000       0.24382000
    60  C          0.19016000       0.76556000       0.75618000
    61  H          0.83920000       0.15350000       0.23750000
    62  H          0.16080000       0.84650000       0.76250000
    63  C          0.65243000       0.21563000       0.25889190
    64  C          0.34757000       0.78437000       0.74110810
    65  C          0.94103000       0.73894000       0.21372000
    66  C          0.05897000       0.26106000       0.78628000
    67  H          0.01730000       0.83460000       0.21890000
    68  H         -0.01730000       0.16540000       0.78110000
    69  C         -0.01437000       0.63034000       0.22492000
    70  C          0.01437000       0.36966000       0.77508000
    71  H          0.09380000       0.64820000       0.22960000
    72  H          0.90620000       0.35180000       0.77040000
    73  C          0.53734000       0.07743000       0.27052000
    74  C          0.46266000       0.92257000       0.72948000
    75  H          0.56470000      -0.00480000       0.26340000
    76  H          0.43530000       0.00480000       0.73660000
    77  C          0.91864000       0.36795000       0.23812000
    78  C          0.08136000       0.63205000       0.76188000
    79  H          0.02570000       0.38210000       0.23960000
    80  H          0.97430000       0.61790000       0.76040000
    81  C          0.39064000       0.06323000       0.29132000
    82  C          0.60936000       0.93677000       0.70868000
    83  H          0.31380000       0.97000000       0.29140000
    84  H          0.68620000       0.03000000       0.70860000
    85  Cl         0.20692130       0.95740130       0.03664900
    86  Cl         0.79307870       0.04259870       0.96335100
    87  C          0.04546000       0.97625000       0.96776000
    88  C          0.95454000       0.02375000       0.03224000
    89  H          0.08790000       0.04660000       0.92530000
    90  H          0.91210000       0.95340000       0.07470000
    91  H         -0.02190000       0.88010000       0.92060000
    92  H          0.02190000       0.11990000       0.07940000
    93  Cl         0.79862150       0.05633160       0.47750110
    94  Cl         0.20137850       0.94366840       0.52249890
    95  C          0.93705000       0.96826000       0.45843000
    96  C          0.06295000       0.03174000       0.54157000
    97  H          0.88220000       0.86210000       0.45310000
    98  H          0.11780000       0.13790000       0.54690000
    99  H         -0.02130000       0.97980000       0.39310000
   100  H          0.02130000       0.02020000       0.60690000
