data_HAVQOK
_symmetry_space_group_name_H-M    'P1'
_symmetry_Int_Tables_number       1
loop_
_symmetry_equiv_pos_site_id
_symmetry_equiv_pos_as_xyz
1 x,y,z
_cell_length_a                   24.4624
_cell_length_b                   10.779214
_cell_length_c                   9.385713
_cell_angle_alpha                90.0
_cell_angle_beta                 104.87312
_cell_angle_gamma                90.0
loop_
_atom_site_label
_atom_site_type_symbol
_atom_site_fract_x
_atom_site_fract_y
_atom_site_fract_z
     1  S          0.17488200       0.68551600       0.08198400
     2  S          0.67488200       0.18551600       0.08198400
     3  S          0.82511800       0.68551600       0.41801600
     4  S          0.32511800       0.18551600       0.41801600
     5  S          0.82511800       0.31448400       0.91801600
     6  S          0.32511800       0.81448400       0.91801600
     7  S          0.17488200       0.31448400       0.58198400
     8  S          0.67488200       0.81448400       0.58198400
     9  O          0.14335600       0.59111880       0.13139140
    10  O          0.64335600       0.09111880       0.13139140
    11  O          0.85664400       0.59111880       0.36860860
    12  O          0.35664400       0.09111880       0.36860860
    13  O          0.85664400       0.40888120       0.86860860
    14  O          0.35664400       0.90888120       0.86860860
    15  O          0.14335600       0.40888120       0.63139140
    16  O          0.64335600       0.90888120       0.63139140
    17  O          0.18721600       0.67148880       0.94044870
    18  O          0.68721600       0.17148880       0.94044870
    19  O          0.81278400       0.67148880       0.55955130
    20  O          0.31278400       0.17148880       0.55955130
    21  O          0.81278400       0.32851120       0.05955130
    22  O          0.31278400       0.82851120       0.05955130
    23  O          0.18721600       0.32851120       0.44044870
    24  O          0.68721600       0.82851120       0.44044870
    25  N          0.23687700       0.69586860       0.19942000
    26  N          0.73687700       0.19586860       0.19942000
    27  N          0.76312300       0.69586860       0.30058000
    28  N          0.26312300       0.19586860       0.30058000
    29  N          0.76312300       0.30413140       0.80058000
    30  N          0.26312300       0.80413140       0.80058000
    31  N          0.23687700       0.30413140       0.69942000
    32  N          0.73687700       0.80413140       0.69942000
    33  C          0.24211700       0.72418000       0.35162000
    34  C          0.74211700       0.22418000       0.35162000
    35  C          0.75788300       0.72418000       0.14838000
    36  C          0.25788300       0.22418000       0.14838000
    37  C          0.75788300       0.27582000       0.64838000
    38  C          0.25788300       0.77582000       0.64838000
    39  C          0.24211700       0.27582000       0.85162000
    40  C          0.74211700       0.77582000       0.85162000
    41  C          0.27255800       0.82838000       0.41282000
    42  C          0.77255800       0.32838000       0.41282000
    43  C          0.72744200       0.82838000       0.08718000
    44  C          0.22744200       0.32838000       0.08718000
    45  C          0.72744200       0.17162000       0.58718000
    46  C          0.22744200       0.67162000       0.58718000
    47  C          0.27255800       0.17162000       0.91282000
    48  C          0.77255800       0.67162000       0.91282000
    49  H          0.28789800       0.88198000       0.35262000
    50  H          0.78789800       0.38198000       0.35262000
    51  H          0.71210200       0.88198000       0.14738000
    52  H          0.21210200       0.38198000       0.14738000
    53  H          0.71210200       0.11802000       0.64738000
    54  H          0.21210200       0.61802000       0.64738000
    55  H          0.28789800       0.11802000       0.85262000
    56  H          0.78789800       0.61802000       0.85262000
    57  C          0.21932700       0.64538000       0.43892000
    58  C          0.71932700       0.14538000       0.43892000
    59  C          0.78067300       0.64538000       0.06108000
    60  C          0.28067300       0.14538000       0.06108000
    61  C          0.78067300       0.35462000       0.56108000
    62  C          0.28067300       0.85462000       0.56108000
    63  C          0.21932700       0.35462000       0.93892000
    64  C          0.71932700       0.85462000       0.93892000
    65  H          0.19836700       0.57428000       0.39702000
    66  H          0.69836700       0.07428000       0.39702000
    67  H          0.80163300       0.57428000       0.10298000
    68  H          0.30163300       0.07428000       0.10298000
    69  H          0.80163300       0.42572000       0.60298000
    70  H          0.30163300       0.92572000       0.60298000
    71  H          0.19836700       0.42572000       0.89702000
    72  H          0.69836700       0.92572000       0.89702000
    73  C          0.14066700       0.82848000       0.08532000
    74  C          0.64066700       0.32848000       0.08532000
    75  C          0.85933300       0.82848000       0.41468000
    76  C          0.35933300       0.32848000       0.41468000
    77  C          0.85933300       0.17152000       0.91468000
    78  C          0.35933300       0.67152000       0.91468000
    79  C          0.14066700       0.17152000       0.58532000
    80  C          0.64066700       0.67152000       0.58532000
    81  C          0.09592110       0.83657000       0.14703000
    82  C          0.59592110       0.33657000       0.14703000
    83  C          0.90407890       0.83657000       0.35297000
    84  C          0.40407890       0.33657000       0.35297000
    85  C          0.90407890       0.16343000       0.85297000
    86  C          0.40407890       0.66343000       0.85297000
    87  C          0.09592110       0.16343000       0.64703000
    88  C          0.59592110       0.66343000       0.64703000
    89  H          0.08188110       0.76497000       0.18483000
    90  H          0.58188110       0.26497000       0.18483000
    91  H          0.91811890       0.76497000       0.31517000
    92  H          0.41811890       0.26497000       0.31517000
    93  H          0.91811890       0.23503000       0.81517000
    94  H          0.41811890       0.73503000       0.81517000
    95  H          0.08188110       0.23503000       0.68483000
    96  H          0.58188110       0.73503000       0.68483000
    97  C          0.07146140       0.95207000       0.15324000
    98  C          0.57146140       0.45207000       0.15324000
    99  C          0.92853860       0.95207000       0.34676000
   100  C          0.42853860       0.45207000       0.34676000
   101  C          0.92853860       0.04793000       0.84676000
   102  C          0.42853860       0.54793000       0.84676000
   103  C          0.07146140       0.04793000       0.65324000
   104  C          0.57146140       0.54793000       0.65324000
   105  H          0.04025140       0.95817000       0.19574000
   106  H          0.54025140       0.45817000       0.19574000
   107  H          0.95974860       0.95817000       0.30426000
   108  H          0.45974860       0.45817000       0.30426000
   109  H          0.95974860       0.04183000       0.80426000
   110  H          0.45974860       0.54183000       0.80426000
   111  H          0.04025140       0.04183000       0.69574000
   112  H          0.54025140       0.54183000       0.69574000
   113  C          0.09068110       0.05772000       0.10033000
   114  C          0.59068110       0.55772000       0.10033000
   115  C          0.90931890       0.05772000       0.39967000
   116  C          0.40931890       0.55772000       0.39967000
   117  C          0.90931890       0.94228000       0.89967000
   118  C          0.40931890       0.44228000       0.89967000
   119  C          0.09068110       0.94228000       0.60033000
   120  C          0.59068110       0.44228000       0.60033000
   121  C          0.13467110       0.04572000       0.03653000
   122  C          0.63467110       0.54572000       0.03653000
   123  C          0.86532890       0.04572000       0.46347000
   124  C          0.36532890       0.54572000       0.46347000
   125  C          0.86532890       0.95428000       0.96347000
   126  C          0.36532890       0.45428000       0.96347000
   127  C          0.13467110       0.95428000       0.53653000
   128  C          0.63467110       0.45428000       0.53653000
   129  H          0.14808110       0.11712000      -0.00343000
   130  H          0.64808110       0.61712000      -0.00343000
   131  H          0.85191890       0.11712000       0.50343000
   132  H          0.35191890       0.61712000       0.50343000
   133  H          0.85191890       0.88288000       0.00343000
   134  H          0.35191890       0.38288000       0.00343000
   135  H          0.14808110       0.88288000       0.49657000
   136  H          0.64808110       0.38288000       0.49657000
   137  C          0.16014100       0.93268000       0.02863000
   138  C          0.66014100       0.43268000       0.02863000
   139  C          0.83985900       0.93268000       0.47137000
   140  C          0.33985900       0.43268000       0.47137000
   141  C          0.83985900       0.06732000       0.97137000
   142  C          0.33985900       0.56732000       0.97137000
   143  C          0.16014100       0.06732000       0.52863000
   144  C          0.66014100       0.56732000       0.52863000
   145  H          0.19088100       0.92668000       0.98427000
   146  H          0.69088100       0.42668000       0.98427000
   147  H          0.80911900       0.92668000       0.51573000
   148  H          0.30911900       0.42668000       0.51573000
   149  H          0.80911900       0.07332000       0.01573000
   150  H          0.30911900       0.57332000       0.01573000
   151  H          0.19088100       0.07332000       0.48427000
   152  H          0.69088100       0.57332000       0.48427000
   153  C          0.06502000       0.18413000       0.11384000
   154  C          0.56502000       0.68413000       0.11384000
   155  C          0.93498000       0.18413000       0.38616000
   156  C          0.43498000       0.68413000       0.38616000
   157  C          0.93498000       0.81587000       0.88616000
   158  C          0.43498000       0.31587000       0.88616000
   159  C          0.06502000       0.81587000       0.61384000
   160  C          0.56502000       0.31587000       0.61384000
   161  H          0.03412000       0.17503000       0.16204000
   162  H          0.53412000       0.67503000       0.16204000
   163  H          0.96588000       0.17503000       0.33796000
   164  H          0.46588000       0.67503000       0.33796000
   165  H          0.96588000       0.82497000       0.83796000
   166  H          0.46588000       0.32497000       0.83796000
   167  H          0.03412000       0.82497000       0.66204000
   168  H          0.53412000       0.32497000       0.66204000
   169  H          0.05022000       0.21973000       0.01534000
   170  H          0.55022000       0.71973000       0.01534000
   171  H          0.94978000       0.21973000       0.48466000
   172  H          0.44978000       0.71973000       0.48466000
   173  H          0.94978000       0.78027000      -0.01534000
   174  H          0.44978000       0.28027000      -0.01534000
   175  H          0.05022000       0.78027000       0.51534000
   176  H          0.55022000       0.28027000       0.51534000
   177  H          0.09412000       0.23903000       0.17264000
   178  H          0.59412000       0.73903000       0.17264000
   179  H          0.90588000       0.23903000       0.32736000
   180  H          0.40588000       0.73903000       0.32736000
   181  H          0.90588000       0.76097000       0.82736000
   182  H          0.40588000       0.26097000       0.82736000
   183  H          0.09412000       0.76097000       0.67264000
   184  H          0.59412000       0.26097000       0.67264000
   185  H          0.25919000       0.73507800       0.16202400
   186  H          0.75919000       0.23507800       0.16202400
   187  H          0.74081000       0.73507800       0.33797600
   188  H          0.24081000       0.23507800       0.33797600
   189  H          0.74081000       0.26492200       0.83797600
   190  H          0.24081000       0.76492200       0.83797600
   191  H          0.25919000       0.26492200       0.66202400
   192  H          0.75919000       0.76492200       0.66202400
   193  O         -0.00000000       0.67268000       0.25000000
   194  O          0.50000000       0.17268000       0.25000000
   195  O         -0.00000000       0.32732000       0.75000000
   196  O          0.50000000       0.82732000       0.75000000
   197  C         -0.00000000       0.56117000       0.25000000
   198  C          0.50000000       0.06117000       0.25000000
   199  C         -0.00000000       0.43883000       0.75000000
   200  C          0.50000000       0.93883000       0.75000000
   201  C          0.95204860       0.49007000       0.15814000
   202  C          0.45204860      -0.00993000       0.15814000
   203  C          0.04795140       0.49007000       0.34186000
   204  C          0.54795140      -0.00993000       0.34186000
   205  C          0.04795140       0.50993000       0.84186000
   206  C          0.54795140       0.00993000       0.84186000
   207  C          0.95204860       0.50993000       0.65814000
   208  C          0.45204860       0.00993000       0.65814000
   209  H          0.92331860       0.54777000       0.10304000
   210  H          0.42331860       0.04777000       0.10304000
   211  H          0.07668140       0.54777000       0.39696000
   212  H          0.57668140       0.04777000       0.39696000
   213  H          0.07668140       0.45223000       0.89696000
   214  H          0.57668140       0.95223000       0.89696000
   215  H          0.92331860       0.45223000       0.60304000
   216  H          0.42331860       0.95223000       0.60304000
   217  H          0.93549860       0.43777000       0.22154000
   218  H          0.43549860       0.93777000       0.22154000
   219  H          0.06450140       0.43777000       0.27846000
   220  H          0.56450140       0.93777000       0.27846000
   221  H          0.06450140       0.56223000       0.77846000
   222  H          0.56450140       0.06223000       0.77846000
   223  H          0.93549860       0.56223000       0.72154000
   224  H          0.43549860       0.06223000       0.72154000
   225  H          0.96553860       0.43777000       0.08884000
   226  H          0.46553860       0.93777000       0.08884000
   227  H          0.03446140       0.43777000       0.41116000
   228  H          0.53446140       0.93777000       0.41116000
   229  H          0.03446140       0.56223000       0.91116000
   230  H          0.53446140       0.06223000       0.91116000
   231  H          0.96553860       0.56223000       0.58884000
   232  H          0.46553860       0.06223000       0.58884000
