data_HAWBIQ
_symmetry_space_group_name_H-M    'P1'
_symmetry_Int_Tables_number       1
loop_
_symmetry_equiv_pos_site_id
_symmetry_equiv_pos_as_xyz
1 x,y,z
_cell_length_a                   24.2892
_cell_length_b                   10.94701
_cell_length_c                   9.35601
_cell_angle_alpha                90.0
_cell_angle_beta                 107.5546
_cell_angle_gamma                90.0
loop_
_atom_site_label
_atom_site_type_symbol
_atom_site_fract_x
_atom_site_fract_y
_atom_site_fract_z
     1  S          0.17482300       0.67984400       0.07387700
     2  S          0.67482300       0.17984400       0.07387700
     3  S          0.82517700       0.67984400       0.42612300
     4  S          0.32517700       0.17984400       0.42612300
     5  S          0.82517700       0.32015600       0.92612300
     6  S          0.32517700       0.82015600       0.92612300
     7  S          0.17482300       0.32015600       0.57387700
     8  S          0.67482300       0.82015600       0.57387700
     9  O          0.14318800       0.58468000       0.11622000
    10  O          0.64318800       0.08468000       0.11622000
    11  O          0.85681200       0.58468000       0.38378000
    12  O          0.35681200       0.08468000       0.38378000
    13  O          0.85681200       0.41532000       0.88378000
    14  O          0.35681200       0.91532000       0.88378000
    15  O          0.14318800       0.41532000       0.61622000
    16  O          0.64318800       0.91532000       0.61622000
    17  O          0.18738700       0.67058000       0.93348000
    18  O          0.68738700       0.17058000       0.93348000
    19  O          0.81261300       0.67058000       0.56652000
    20  O          0.31261300       0.17058000       0.56652000
    21  O          0.81261300       0.32942000       0.06652000
    22  O          0.31261300       0.82942000       0.06652000
    23  O          0.18738700       0.32942000       0.43348000
    24  O          0.68738700       0.82942000       0.43348000
    25  N          0.23826900       0.68988000       0.19992000
    26  N          0.73826900       0.18988000       0.19992000
    27  N          0.76173100       0.68988000       0.30008000
    28  N          0.26173100       0.18988000       0.30008000
    29  N          0.76173100       0.31012000       0.80008000
    30  N          0.26173100       0.81012000       0.80008000
    31  N          0.23826900       0.31012000       0.69992000
    32  N          0.73826900       0.81012000       0.69992000
    33  H          0.25671100       0.72787600       0.16583000
    34  H          0.75671100       0.22787600       0.16583000
    35  H          0.74328900       0.72787600       0.33417000
    36  H          0.24328900       0.22787600       0.33417000
    37  H          0.74328900       0.27212400       0.83417000
    38  H          0.24328900       0.77212400       0.83417000
    39  H          0.25671100       0.27212400       0.66583000
    40  H          0.75671100       0.77212400       0.66583000
    41  C          0.24281100       0.72078000       0.35203000
    42  C          0.74281100       0.22078000       0.35203000
    43  C          0.75718900       0.72078000       0.14797000
    44  C          0.25718900       0.22078000       0.14797000
    45  C          0.75718900       0.27922000       0.64797000
    46  C          0.25718900       0.77922000       0.64797000
    47  C          0.24281100       0.27922000       0.85203000
    48  C          0.74281100       0.77922000       0.85203000
    49  C          0.27353100       0.82488000       0.41453000
    50  C          0.77353100       0.32488000       0.41453000
    51  C          0.72646900       0.82488000       0.08547000
    52  C          0.22646900       0.32488000       0.08547000
    53  C          0.72646900       0.17512000       0.58547000
    54  C          0.22646900       0.67512000       0.58547000
    55  C          0.27353100       0.17512000       0.91453000
    56  C          0.77353100       0.67512000       0.91453000
    57  H          0.28953100       0.87618000       0.35533000
    58  H          0.78953100       0.37618000       0.35533000
    59  H          0.71046900       0.87618000       0.14467000
    60  H          0.21046900       0.37618000       0.14467000
    61  H          0.71046900       0.12382000       0.64467000
    62  H          0.21046900       0.62382000       0.64467000
    63  H          0.28953100       0.12382000       0.85533000
    64  H          0.78953100       0.62382000       0.85533000
    65  C          0.21924100       0.64628000       0.43673000
    66  C          0.71924100       0.14628000       0.43673000
    67  C          0.78075900       0.64628000       0.06327000
    68  C          0.28075900       0.14628000       0.06327000
    69  C          0.78075900       0.35372000       0.56327000
    70  C          0.28075900       0.85372000       0.56327000
    71  C          0.21924100       0.35372000       0.93673000
    72  C          0.71924100       0.85372000       0.93673000
    73  H          0.19811100       0.57558000       0.39343000
    74  H          0.69811100       0.07558000       0.39343000
    75  H          0.80188900       0.57558000       0.10657000
    76  H          0.30188900       0.07558000       0.10657000
    77  H          0.80188900       0.42442000       0.60657000
    78  H          0.30188900       0.92442000       0.60657000
    79  H          0.19811100       0.42442000       0.89343000
    80  H          0.69811100       0.92442000       0.89343000
    81  C          0.13959100       0.81908000       0.07903000
    82  C          0.63959100       0.31908000       0.07903000
    83  C          0.86040900       0.81908000       0.42097000
    84  C          0.36040900       0.31908000       0.42097000
    85  C          0.86040900       0.18092000       0.92097000
    86  C          0.36040900       0.68092000       0.92097000
    87  C          0.13959100       0.18092000       0.57903000
    88  C          0.63959100       0.68092000       0.57903000
    89  C          0.09437120       0.82387000       0.13833000
    90  C          0.59437120       0.32387000       0.13833000
    91  C          0.90562880       0.82387000       0.36167000
    92  C          0.40562880       0.32387000       0.36167000
    93  C          0.90562880       0.17613000       0.86167000
    94  C          0.40562880       0.67613000       0.86167000
    95  C          0.09437120       0.17613000       0.63833000
    96  C          0.59437120       0.67613000       0.63833000
    97  H          0.07985120       0.75187000       0.17063000
    98  H          0.57985120       0.25187000       0.17063000
    99  H          0.92014880       0.75187000       0.32937000
   100  H          0.42014880       0.25187000       0.32937000
   101  H          0.92014880       0.24813000       0.82937000
   102  H          0.42014880       0.74813000       0.82937000
   103  H          0.07985120       0.24813000       0.67063000
   104  H          0.57985120       0.74813000       0.67063000
   105  C          0.07042000       0.93786000       0.14954000
   106  C          0.57042000       0.43786000       0.14954000
   107  C          0.92958000       0.93786000       0.35046000
   108  C          0.42958000       0.43786000       0.35046000
   109  C          0.92958000       0.06214000       0.85046000
   110  C          0.42958000       0.56214000       0.85046000
   111  C          0.07042000       0.06214000       0.64954000
   112  C          0.57042000       0.56214000       0.64954000
   113  H          0.03922000       0.94266000       0.19054000
   114  H          0.53922000       0.44266000       0.19054000
   115  H          0.96078000       0.94266000       0.30946000
   116  H          0.46078000       0.44266000       0.30946000
   117  H          0.96078000       0.05734000       0.80946000
   118  H          0.46078000       0.55734000       0.80946000
   119  H          0.03922000       0.05734000       0.69054000
   120  H          0.53922000       0.55734000       0.69054000
   121  C          0.09041140       0.04353000       0.10344000
   122  C          0.59041140       0.54353000       0.10344000
   123  C          0.90958860       0.04353000       0.39656000
   124  C          0.40958860       0.54353000       0.39656000
   125  C          0.90958860       0.95647000       0.89656000
   126  C          0.40958860       0.45647000       0.89656000
   127  C          0.09041140       0.95647000       0.60344000
   128  C          0.59041140       0.45647000       0.60344000
   129  C          0.13455130       0.03433000       0.04114000
   130  C          0.63455130       0.53433000       0.04114000
   131  C          0.86544870       0.03433000       0.45886000
   132  C          0.36544870       0.53433000       0.45886000
   133  C          0.86544870       0.96567000       0.95886000
   134  C          0.36544870       0.46567000       0.95886000
   135  C          0.13455130       0.96567000       0.54114000
   136  C          0.63455130       0.46567000       0.54114000
   137  H          0.14817130       0.10593000       0.00534000
   138  H          0.64817130       0.60593000       0.00534000
   139  H          0.85182870       0.10593000       0.49466000
   140  H          0.35182870       0.60593000       0.49466000
   141  H          0.85182870       0.89407000      -0.00534000
   142  H          0.35182870       0.39407000      -0.00534000
   143  H          0.14817130       0.89407000       0.50534000
   144  H          0.64817130       0.39407000       0.50534000
   145  C          0.15949130       0.92367000       0.02954000
   146  C          0.65949130       0.42367000       0.02954000
   147  C          0.84050870       0.92367000       0.47046000
   148  C          0.34050870       0.42367000       0.47046000
   149  C          0.84050870       0.07633000       0.97046000
   150  C          0.34050870       0.57633000       0.97046000
   151  C          0.15949130       0.07633000       0.52954000
   152  C          0.65949130       0.57633000       0.52954000
   153  H          0.19047130       0.91937000      -0.01264000
   154  H          0.69047130       0.41937000      -0.01264000
   155  H          0.80952870       0.91937000       0.51264000
   156  H          0.30952870       0.41937000       0.51264000
   157  H          0.80952870       0.08063000       0.01264000
   158  H          0.30952870       0.58063000       0.01264000
   159  H          0.19047130       0.08063000       0.48736000
   160  H          0.69047130       0.58063000       0.48736000
   161  C          0.06512000       0.16693000       0.12275000
   162  C          0.56512000       0.66693000       0.12275000
   163  C          0.93488000       0.16693000       0.37725000
   164  C          0.43488000       0.66693000       0.37725000
   165  C          0.93488000       0.83307000       0.87725000
   166  C          0.43488000       0.33307000       0.87725000
   167  C          0.06512000       0.83307000       0.62275000
   168  C          0.56512000       0.33307000       0.62275000
   169  H          0.03422000       0.15573000       0.16875000
   170  H          0.53422000       0.65573000       0.16875000
   171  H          0.96578000       0.15573000       0.33125000
   172  H          0.46578000       0.65573000       0.33125000
   173  H          0.96578000       0.84427000       0.83125000
   174  H          0.46578000       0.34427000       0.83125000
   175  H          0.03422000       0.84427000       0.66875000
   176  H          0.53422000       0.34427000       0.66875000
   177  H          0.04942000       0.20583000       0.02455000
   178  H          0.54942000       0.70583000       0.02455000
   179  H          0.95058000       0.20583000       0.47545000
   180  H          0.45058000       0.70583000       0.47545000
   181  H          0.95058000       0.79417000       0.97545000
   182  H          0.45058000       0.29417000       0.97545000
   183  H          0.04942000       0.79417000       0.52455000
   184  H          0.54942000       0.29417000       0.52455000
   185  H          0.09542000       0.21873000       0.18725000
   186  H          0.59542000       0.71873000       0.18725000
   187  H          0.90458000       0.21873000       0.31275000
   188  H          0.40458000       0.71873000       0.31275000
   189  H          0.90458000       0.78127000       0.81275000
   190  H          0.40458000       0.28127000       0.81275000
   191  H          0.09542000       0.78127000       0.68725000
   192  H          0.59542000       0.28127000       0.68725000
   193  O         -0.00000000       0.63377000       0.25000000
   194  O          0.50000000       0.13377000       0.25000000
   195  O         -0.00000000       0.36623000       0.75000000
   196  O          0.50000000       0.86623000       0.75000000
   197  C          0.95779860       0.55777000       0.14864000
   198  C          0.45779860       0.05777000       0.14864000
   199  C          0.04220140       0.55777000       0.35136000
   200  C          0.54220140       0.05777000       0.35136000
   201  C          0.04220140       0.44223000       0.85136000
   202  C          0.54220140       0.94223000       0.85136000
   203  C          0.95779860       0.44223000       0.64864000
   204  C          0.45779860       0.94223000       0.64864000
   205  H          0.95649860       0.57387000       0.04344000
   206  H          0.45649860       0.07387000       0.04344000
   207  H          0.04350140       0.57387000       0.45656000
   208  H          0.54350140       0.07387000       0.45656000
   209  H          0.04350140       0.42613000       0.95656000
   210  H          0.54350140       0.92613000       0.95656000
   211  H          0.95649860       0.42613000       0.54344000
   212  H          0.45649860       0.92613000       0.54344000
   213  H          0.91892860       0.57187000       0.15904000
   214  H          0.41892860       0.07187000       0.15904000
   215  H          0.08107140       0.57187000       0.34096000
   216  H          0.58107140       0.07187000       0.34096000
   217  H          0.08107140       0.42813000       0.84096000
   218  H          0.58107140       0.92813000       0.84096000
   219  H          0.91892860       0.42813000       0.65904000
   220  H          0.41892860       0.92813000       0.65904000
   221  C          0.97718000       0.43517000       0.19244000
   222  C          0.47718000       0.93517000       0.19244000
   223  C          0.02282000       0.43517000       0.30756000
   224  C          0.52282000       0.93517000       0.30756000
   225  C          0.02282000       0.56483000       0.80756000
   226  C          0.52282000       0.06483000       0.80756000
   227  C          0.97718000       0.56483000       0.69244000
   228  C          0.47718000       0.06483000       0.69244000
   229  H          0.95888000       0.36357000       0.14284000
   230  H          0.45888000       0.86357000       0.14284000
   231  H          0.04112000       0.36357000       0.35716000
   232  H          0.54112000       0.86357000       0.35716000
   233  H          0.04112000       0.63643000       0.85716000
   234  H          0.54112000       0.13643000       0.85716000
   235  H          0.95888000       0.63643000       0.64284000
   236  H          0.45888000       0.13643000       0.64284000
