data_HAXFER
_symmetry_space_group_name_H-M    'P1'
_symmetry_Int_Tables_number       1
loop_
_symmetry_equiv_pos_site_id
_symmetry_equiv_pos_as_xyz
1 x,y,z
_cell_length_a                   9.4099
_cell_length_b                   10.8137
_cell_length_c                   12.3107
_cell_angle_alpha                95.755
_cell_angle_beta                 108.177
_cell_angle_gamma                91.467
loop_
_atom_site_label
_atom_site_type_symbol
_atom_site_fract_x
_atom_site_fract_y
_atom_site_fract_z
     1  N          0.59153000       0.23733000       0.16773000
     2  N          0.40847000       0.76267000       0.83227000
     3  C          0.52945000       0.29634000       0.07674000
     4  C          0.47055000       0.70366000       0.92326000
     5  C          0.39914000       0.25034000      -0.00543000
     6  C          0.60086000       0.74966000       0.00543000
     7  C          0.33634000       0.13964000       0.01353000
     8  C          0.66366000       0.86036000       0.98647000
     9  C          0.40094000       0.07903000       0.10883000
    10  C          0.59906000       0.92097000       0.89117000
    11  C          0.53274000       0.13173000       0.18603000
    12  C          0.46726000       0.86827000       0.81397000
    13  C          0.33257000       0.31816000       0.89226000
    14  C          0.66743000       0.68184000       0.10774000
    15  C          0.32997000       0.96025000       0.12816000
    16  C          0.67003000       0.03975000       0.87184000
    17  H          0.69150000       0.27240000       0.22640000
    18  H          0.30850000       0.72760000       0.77360000
    19  H          0.57540000       0.37330000       0.07330000
    20  H          0.42460000       0.62670000       0.92670000
    21  H          0.59040000       0.09330000       0.25230000
    22  H          0.40960000       0.90670000       0.74770000
    23  H          0.40480000       0.37160000       0.85540000
    24  H          0.59520000       0.62840000       0.14460000
    25  H          0.21770000       0.95250000       0.08650000
    26  H          0.78230000       0.04750000       0.91350000
    27  H          0.40870000       0.90740000       0.15450000
    28  H          0.59130000       0.09260000       0.84550000
    29  H          0.24840000       0.10330000       0.96070000
    30  H          0.75160000       0.89670000       0.03930000
    31  H          0.23360000       0.26750000       0.85560000
    32  H          0.76640000       0.73250000       0.14440000
    33  H          0.26670000       0.39260000       0.90650000
    34  H          0.73330000       0.60740000       0.09350000
    35  H          0.34260000       0.96750000       0.20550000
    36  H          0.65740000       0.03250000       0.79450000
    37  C         -0.00587000       0.55833000       0.31983000
    38  C          0.00587000       0.44167000       0.68017000
    39  C          0.06163000       0.66023000       0.39823000
    40  C          0.93837000       0.33977000       0.60177000
    41  C          0.17423000       0.73043000       0.37953000
    42  C          0.82577000       0.26957000       0.62047000
    43  C          0.22244000       0.70443000       0.28593000
    44  C          0.77756000       0.29557000       0.71407000
    45  C          0.15293000       0.60293000       0.20943000
    46  C          0.84707000       0.39707000       0.79057000
    47  C          0.04023000       0.52923000       0.22453000
    48  C          0.95977000       0.47077000       0.77547000
    49  C          0.86953000       0.47973000       0.33673000
    50  C          0.13047000       0.52027000       0.66327000
    51  O          0.83943000       0.37542000       0.28122000
    52  O          0.16057000       0.62458000       0.71878000
    53  O          0.80942000       0.52742000       0.40732000
    54  O          0.19058000       0.47258000       0.59268000
    55  N          0.24773000       0.83663000       0.46543000
    56  N          0.75227000       0.16337000       0.53457000
    57  O          0.33754000       0.90463000       0.44363000
    58  O          0.66246000       0.09537000       0.55637000
    59  H          0.30140000       0.75430000       0.27830000
    60  H          0.69860000       0.24570000       0.72170000
    61  O          0.21513000       0.85103000       0.55393000
    62  O          0.78487000       0.14897000       0.44607000
    63  N          0.20284000       0.56964000       0.10913000
    64  N          0.79716000       0.43036000       0.89087000
    65  O          0.28544000       0.64463000       0.08753000
    66  O          0.71456000       0.35537000       0.91247000
    67  O          0.15833000       0.46833000       0.05302000
    68  O          0.84167000       0.53167000       0.94698000
    69  H          0.03330000       0.68330000       0.46230000
    70  H          0.96670000       0.31670000       0.53770000
    71  H          0.00030000       0.46030000       0.17430000
    72  H         -0.00030000       0.53970000       0.82570000
    73  H          0.21830000       0.30630000       0.20130000
    74  H          0.78170000       0.69370000       0.79870000
    75  H          0.44630000       0.29730000       0.54130000
    76  H          0.55370000       0.70270000       0.45870000
    77  C          0.35283000       0.31763000       0.37153000
    78  C          0.64717000       0.68237000       0.62847000
    79  C          0.22974000       0.27913000       0.27603000
    80  C          0.77026000       0.72087000       0.72397000
    81  C          0.11983000       0.19923000       0.28843000
    82  C          0.88017000       0.80077000       0.71157000
    83  C          0.12644000       0.15823000       0.39183000
    84  C          0.87356000       0.84177000       0.60817000
    85  C          0.25023000       0.19723000       0.48423000
    86  C          0.74977000       0.80277000       0.51577000
    87  C          0.36433000       0.27543000       0.47613000
    88  C          0.63567000       0.72457000       0.52387000
    89  C          0.47213000       0.40353000       0.35653000
    90  C          0.52787000       0.59647000       0.64347000
    91  O          0.59943000       0.40492000       0.43842000
    92  O          0.40057000       0.59508000       0.56158000
    93  O          0.44693000       0.46233000       0.27452000
    94  O          0.55307000       0.53767000       0.72548000
    95  N         -0.00874000       0.15703000       0.18623000
    96  N          0.00874000       0.84297000       0.81377000
    97  O          0.89566000       0.08553000       0.19783000
    98  O          0.10434000       0.91447000       0.80217000
    99  O         -0.01284000       0.19434000       0.09593000
   100  O          0.01284000       0.80566000       0.90407000
   101  N          0.26244000       0.15513000       0.59623000
   102  N          0.73756000       0.84487000       0.40377000
   103  O          0.38613000       0.16203000       0.66903000
   104  O          0.61387000       0.83797000       0.33097000
   105  O          0.14863000       0.11423000       0.61093000
   106  O          0.85137000       0.88577000       0.38907000
   107  H          0.67240000       0.45240000       0.42330000
   108  H          0.32760000       0.54760000       0.57670000
   109  H          0.05440000       0.10230000       0.39630000
   110  H          0.94560000       0.89770000       0.60370000
