data_HAXVEH
_symmetry_space_group_name_H-M    'P1'
_symmetry_Int_Tables_number       1
loop_
_symmetry_equiv_pos_site_id
_symmetry_equiv_pos_as_xyz
1 x,y,z
_cell_length_a                   8.5854
_cell_length_b                   11.1855
_cell_length_c                   13.4563
_cell_angle_alpha                67.034
_cell_angle_beta                 84.134
_cell_angle_gamma                80.603
loop_
_atom_site_label
_atom_site_type_symbol
_atom_site_fract_x
_atom_site_fract_y
_atom_site_fract_z
     1  Cl         0.32329000       0.03931000       0.07921000
     2  Cl         0.67671000       0.96069000       0.92079000
     3  C          0.51656000       0.66017000       0.35393000
     4  C          0.48344000       0.33983000       0.64607000
     5  C          0.56826000       0.79127000       0.34303000
     6  C          0.43174000       0.20873000       0.65697000
     7  C          0.49296000       0.90697000       0.25233000
     8  C          0.50704000       0.09303000       0.74767000
     9  C          0.39356000       0.89847000       0.18643000
    10  C          0.60644000       0.10153000       0.81357000
    11  C          0.33866000       0.77167000       0.19473000
    12  C          0.66134000       0.22833000       0.80527000
    13  C          0.35656000       0.66717000       0.31133000
    14  C          0.64344000       0.33283000       0.68867000
    15  C          0.74986000       0.78066000       0.33623000
    16  C          0.25014000       0.21934000       0.66377000
    17  C          0.17626000       0.78786000       0.15343000
    18  C          0.82374000       0.21214000       0.84657000
    19  C          0.22676000       0.69887000       0.38863000
    20  C          0.77324000       0.30113000       0.61137000
    21  N          0.51627000       0.80927000       0.45133000
    22  N          0.48373000       0.19073000       0.54867000
    23  O          0.46026000       0.91837000       0.44723000
    24  O          0.53974000       0.08163000       0.55277000
    25  O          0.53697000       0.71447000       0.53622000
    26  O          0.46303000       0.28553000       0.46378000
    27  N          0.46296000       0.71627000       0.12432000
    28  N          0.53704000       0.28373000       0.87568000
    29  O          0.41766000       0.69207000       0.05173000
    30  O          0.58234000       0.30793000       0.94827000
    31  O          0.60097000       0.69887000       0.14792000
    32  O          0.39903000       0.30113000       0.85208000
    33  O          0.59747000       0.55718000       0.39742000
    34  O          0.40253000       0.44282000       0.60258000
    35  O          0.34307000       0.54538000       0.30542000
    36  O          0.65693000       0.45462000       0.69458000
    37  H          0.52150000      -0.00490000       0.23370000
    38  H          0.47850000       0.00490000       0.76630000
    39  H          0.79020000       0.76930000       0.27080000
    40  H          0.20980000       0.23070000       0.72920000
    41  H          0.79250000       0.70710000       0.39720000
    42  H          0.20750000       0.29290000       0.60280000
    43  H          0.78040000       0.85950000       0.33640000
    44  H          0.21960000       0.14050000       0.66360000
    45  H          0.09900000       0.82150000       0.19610000
    46  H          0.90100000       0.17850000       0.80390000
    47  H          0.15350000       0.70440000       0.15860000
    48  H          0.84650000       0.29560000       0.84140000
    49  H          0.17330000       0.84780000       0.07930000
    50  H          0.82670000       0.15220000       0.92070000
    51  H          0.23700000       0.78170000       0.39130000
    52  H          0.76300000       0.21830000       0.60870000
    53  H          0.23750000       0.63160000       0.45960000
    54  H          0.76250000       0.36840000       0.54040000
    55  H          0.12490000       0.70320000       0.36300000
    56  H          0.87510000       0.29680000       0.63700000
    57  H          0.38810000       0.47570000       0.35910000
    58  H          0.61190000       0.52430000       0.64090000
    59  Cl         0.06471000       0.32461000       0.98391000
    60  Cl         0.93529000       0.67539000       0.01609000
    61  C          0.88726000       0.21923000       0.33863000
    62  C          0.11274000       0.78077000       0.66137000
    63  C          0.05094000       0.27003000       0.30603000
    64  C          0.94906000       0.72997000       0.69397000
    65  C          0.09544000       0.31523000       0.18643000
    66  C          0.90456000       0.68477000       0.81357000
    67  C          0.00874000       0.29303000       0.12003000
    68  C         -0.00874000       0.70697000       0.87997000
    69  C          0.86056000       0.22753000       0.15243000
    70  C          0.13944000       0.77247000       0.84757000
    71  C          0.77276000       0.24633000       0.25063000
    72  C          0.22724000       0.75367000       0.74937000
    73  C          0.17655000       0.16514000       0.37503000
    74  C          0.82345000       0.83486000       0.62497000
    75  C          0.24564000       0.37674000       0.14903000
    76  C          0.75436000       0.62326000       0.85097000
    77  C          0.68866000       0.38693000       0.21583000
    78  C          0.31134000       0.61307000       0.78417000
    79  N          0.03124000       0.39193000       0.33803000
    80  N          0.96876000       0.60807000       0.66197000
    81  O          0.06694000       0.37443000       0.42833000
    82  O          0.93306000       0.62557000       0.57167000
    83  O          0.97777000       0.49663000       0.27133000
    84  O          0.02223000       0.50337000       0.72867000
    85  N          0.90837000       0.08063000       0.18092000
    86  N          0.09163000       0.91937000       0.81908000
    87  O          0.86207000       0.03022000       0.12562000
    88  O          0.13793000       0.96978000       0.87438000
    89  O         -0.00913000       0.02142000       0.26032000
    90  O          0.00913000       0.97858000       0.73968000
    91  O          0.84937000       0.16483000       0.43272000
    92  O          0.15063000       0.83517000       0.56728000
    93  O          0.66107000       0.15492000       0.28912000
    94  O          0.33893000       0.84508000       0.71088000
    95  H          0.79390000       0.25840000       0.08250000
    96  H          0.20610000       0.74160000       0.91750000
    97  H          0.27790000       0.19540000       0.35530000
    98  H          0.72210000       0.80460000       0.64470000
    99  H          0.17900000       0.08590000       0.36260000
   100  H          0.82100000       0.91410000       0.63740000
   101  H          0.15170000       0.14820000       0.45010000
   102  H          0.84830000       0.85180000       0.54990000
   103  H          0.22290000       0.46220000       0.09350000
   104  H          0.77710000       0.53780000       0.90650000
   105  H          0.28960000       0.38420000       0.20880000
   106  H          0.71040000       0.61580000       0.79120000
   107  H          0.32000000       0.32260000       0.12090000
   108  H          0.68000000       0.67740000       0.87910000
   109  H          0.76590000       0.44650000       0.18980000
   110  H          0.23410000       0.55350000       0.81020000
   111  H          0.62880000       0.39930000       0.27610000
   112  H          0.37120000       0.60070000       0.72390000
   113  H          0.61900000       0.40330000       0.15910000
   114  H          0.38100000       0.59670000       0.84090000
   115  H          0.63480000       0.13850000       0.36010000
   116  H          0.36520000       0.86150000       0.63990000
