data_HAXZOZ
_symmetry_space_group_name_H-M    'P1'
_symmetry_Int_Tables_number       1
loop_
_symmetry_equiv_pos_site_id
_symmetry_equiv_pos_as_xyz
1 x,y,z
_cell_length_a                   10.790114
_cell_length_b                   9.962313
_cell_length_c                   17.3033
_cell_angle_alpha                90.0
_cell_angle_beta                 99.1944
_cell_angle_gamma                90.0
loop_
_atom_site_label
_atom_site_type_symbol
_atom_site_fract_x
_atom_site_fract_y
_atom_site_fract_z
     1  Cl         0.26316200       0.31975200       0.49725200
     2  Cl         0.73683800       0.81975200       0.00274800
     3  Cl         0.73683800       0.68024800       0.50274800
     4  Cl         0.26316200       0.18024800      -0.00274800
     5  O          0.24827700       0.28080800       0.32028400
     6  O          0.75172300       0.78080800       0.17971600
     7  O          0.75172300       0.71919200       0.67971600
     8  O          0.24827700       0.21919200       0.82028400
     9  O          0.24965700       0.25211900       0.17061500
    10  O          0.75034300       0.75211900       0.32938500
    11  O          0.75034300       0.74788100       0.82938500
    12  O          0.24965700       0.24788100       0.67061500
    13  C          0.15962900       0.19603100       0.28147600
    14  C          0.84037100       0.69603100       0.21852400
    15  C          0.84037100       0.80396900       0.71852400
    16  C          0.15962900       0.30396900       0.78147600
    17  C          0.07119100       0.12855110       0.31692600
    18  C          0.92880900       0.62855110       0.18307400
    19  C          0.92880900       0.87144890       0.68307400
    20  C          0.07119100       0.37144890       0.81692600
    21  C         -0.01426100       0.04193110       0.27316700
    22  C          0.01426100       0.54193110       0.22683300
    23  C          0.01426100       0.95806890       0.72683300
    24  C         -0.01426100       0.45806890       0.77316700
    25  C         -0.01104100       0.02341110       0.19410700
    26  C          0.01104100       0.52341110       0.30589300
    27  C          0.01104100       0.97658890       0.80589300
    28  C         -0.01104100       0.47658890       0.69410700
    29  C          0.07640100       0.09268110       0.15816600
    30  C          0.92359900       0.59268110       0.34183400
    31  C          0.92359900       0.90731890       0.84183400
    32  C          0.07640100       0.40731890       0.65816600
    33  C          0.16145900       0.17939100       0.20132600
    34  C          0.83854100       0.67939100       0.29867400
    35  C          0.83854100       0.82060900       0.79867400
    36  C          0.16145900       0.32060900       0.70132600
    37  H          0.24221600       0.28401800       0.36911100
    38  H          0.75778400       0.78401800       0.13088900
    39  H          0.75778400       0.71598200       0.63088900
    40  H          0.24221600       0.21598200       0.86911100
    41  H          0.24601500       0.23461800       0.12311100
    42  H          0.75398500       0.73461800       0.37688900
    43  H          0.75398500       0.76538200       0.87688900
    44  H          0.24601500       0.26538200       0.62311100
    45  H          0.06886000       0.14137000       0.37108000
    46  H          0.93114000       0.64137000       0.12892000
    47  H          0.93114000       0.85863000       0.62892000
    48  H          0.06886000       0.35863000       0.87108000
    49  H          0.92535000      -0.00435000       0.29751000
    50  H          0.07465000       0.49565000       0.20249000
    51  H          0.07465000       0.00435000       0.70249000
    52  H          0.92535000       0.50435000       0.79751000
    53  H          0.93154000       0.96346000       0.16443000
    54  H          0.06846000       0.46346000       0.33557000
    55  H          0.06846000       0.03654000       0.83557000
    56  H          0.93154000       0.53654000       0.66443000
    57  H          0.07783000       0.08053000       0.10385000
    58  H          0.92217000       0.58053000       0.39615000
    59  H          0.92217000       0.91947000       0.89615000
    60  H          0.07783000       0.41947000       0.60385000
    61  O          0.50389700       0.15672800       0.45866500
    62  O          0.49610300       0.65672800       0.04133500
    63  O          0.49610300       0.84327200       0.54133500
    64  O          0.50389700       0.34327200       0.95866500
    65  O          0.59927700       0.40718700       0.47504400
    66  O          0.40072300       0.90718700       0.02495600
    67  O          0.40072300       0.59281300       0.52495600
    68  O          0.59927700       0.09281300       0.97504400
    69  C          0.63118900       0.17530100       0.46784500
    70  C          0.36881100       0.67530100       0.03215500
    71  C          0.36881100       0.82469900       0.53215500
    72  C          0.63118900       0.32469900       0.96784500
    73  C          0.70803100       0.06373100       0.46807600
    74  C          0.29196900       0.56373100       0.03192400
    75  C          0.29196900       0.93626900       0.53192400
    76  C          0.70803100       0.43626900       0.96807600
    77  C          0.83779100       0.08025110       0.47715600
    78  C          0.16220900       0.58025110       0.02284400
    79  C          0.16220900       0.91974890       0.52284400
    80  C          0.83779100       0.41974890       0.97715600
    81  C          0.89024100       0.20771110       0.48688600
    82  C          0.10975900       0.70771110       0.01311400
    83  C          0.10975900       0.79228890       0.51311400
    84  C          0.89024100       0.29228890       0.98688600
    85  C          0.81318100       0.31980100       0.48708600
    86  C          0.18681900       0.81980100       0.01291400
    87  C          0.18681900       0.68019900       0.51291400
    88  C          0.81318100       0.18019900       0.98708600
    89  C          0.68343900       0.30388100       0.47690500
    90  C          0.31656100       0.80388100       0.02309500
    91  C          0.31656100       0.69611900       0.52309500
    92  C          0.68343900       0.19611900       0.97690500
    93  H          0.46831500       0.22801800       0.46411000
    94  H          0.53168500       0.72801800       0.03589000
    95  H          0.53168500       0.77198200       0.53589000
    96  H          0.46831500       0.27198200       0.96411000
    97  H          0.63721500       0.48371800       0.48279000
    98  H          0.36278500       0.98371800       0.01721000
    99  H          0.36278500       0.51628200       0.51721000
   100  H          0.63721500       0.01628200       0.98279000
   101  H          0.67240000       0.97642000       0.46206000
   102  H          0.32760000       0.47642000       0.03794000
   103  H          0.32760000       0.02358000       0.53794000
   104  H          0.67240000       0.52358000       0.96206000
   105  H          0.89060000       0.00406000       0.47668000
   106  H          0.10940000       0.50406000       0.02332000
   107  H          0.10940000      -0.00406000       0.52332000
   108  H          0.89060000       0.49594000       0.97668000
   109  H          0.97879000       0.21841000       0.49341000
   110  H          0.02121000       0.71841000       0.00659000
   111  H          0.02121000       0.78159000       0.50659000
   112  H          0.97879000       0.28159000      -0.00659000
   113  H          0.84907000       0.40689000       0.49414000
   114  H          0.15093000       0.90689000       0.00586000
   115  H          0.15093000       0.59311000       0.50586000
   116  H          0.84907000       0.09311000      -0.00586000
   117  O          0.34599700       0.51775800       0.25630500
   118  O          0.65400300       0.01775800       0.24369500
   119  O          0.65400300       0.48224200       0.74369500
   120  O          0.34599700       0.98224200       0.75630500
   121  N          0.35999800       0.81237900       0.29896500
   122  N          0.64000200       0.31237900       0.20103500
   123  N          0.64000200       0.18762100       0.70103500
   124  N          0.35999800       0.68762100       0.79896500
   125  C          0.37198100       0.56216110       0.33514600
   126  C          0.62801900       0.06216110       0.16485400
   127  C          0.62801900       0.43783890       0.66485400
   128  C          0.37198100       0.93783890       0.83514600
   129  C          0.43589900       0.69739110       0.33983600
   130  C          0.56410100       0.19739110       0.16016400
   131  C          0.56410100       0.30260890       0.66016400
   132  C          0.43589900       0.80260890       0.83983600
   133  C          0.22656100       0.80901110       0.31230700
   134  C          0.77343900       0.30901110       0.18769300
   135  C          0.77343900       0.19098890       0.68769300
   136  C          0.22656100       0.69098890       0.81230700
   137  C          0.36255140       0.80922130       0.21255600
   138  C          0.63744860       0.30922130       0.28744400
   139  C          0.63744860       0.19077870       0.78744400
   140  C          0.36255140       0.69077870       0.71255600
   141  C          0.41799110       0.94147110       0.33209700
   142  C          0.58200890       0.44147110       0.16790300
   143  C          0.58200890       0.05852890       0.66790300
   144  C          0.41799110       0.55852890       0.83209700
   145  H          0.42685000       0.49618000       0.36687000
   146  H          0.57315000      -0.00382000       0.13313000
   147  H          0.57315000       0.50382000       0.63313000
   148  H          0.42685000       0.00382000       0.86687000
   149  H          0.29266000       0.56880000       0.35682000
   150  H          0.70734000       0.06880000       0.14318000
   151  H          0.70734000       0.43120000       0.64318000
   152  H          0.29266000       0.93120000       0.85682000
   153  H          0.31291600       0.44421900       0.25621000
   154  H          0.68708400       0.94421900       0.24379000
   155  H          0.68708400       0.55578100       0.74379000
   156  H          0.31291600       0.05578100       0.75621000
   157  H          0.51423000       0.68879000       0.31726000
   158  H          0.48577000       0.18879000       0.18274000
   159  H          0.48577000       0.31121000       0.68274000
   160  H          0.51423000       0.81121000       0.81726000
   161  H          0.46003000       0.72121000       0.39576000
   162  H          0.53997000       0.22121000       0.10424000
   163  H          0.53997000       0.27879000       0.60424000
   164  H          0.46003000       0.77879000       0.89576000
   165  H          0.18281000       0.88938000       0.28946000
   166  H          0.81719000       0.38938000       0.21054000
   167  H          0.81719000       0.11062000       0.71054000
   168  H          0.18281000       0.61062000       0.78946000
   169  H          0.22417000       0.80665000       0.36866000
   170  H          0.77583000       0.30665000       0.13134000
   171  H          0.77583000       0.19335000       0.63134000
   172  H          0.22417000       0.69335000       0.86866000
   173  H          0.18519000       0.72880000       0.28751000
   174  H          0.81481000       0.22880000       0.21249000
   175  H          0.81481000       0.27120000       0.71249000
   176  H          0.18519000       0.77120000       0.78751000
   177  H          0.32471000       0.72538000       0.19048000
   178  H          0.67529000       0.22538000       0.30952000
   179  H          0.67529000       0.27462000       0.80952000
   180  H          0.32471000       0.77462000       0.69048000
   181  H          0.44965000       0.81459000       0.20325000
   182  H          0.55035000       0.31459000       0.29675000
   183  H          0.55035000       0.18541000       0.79675000
   184  H          0.44965000       0.68541000       0.70325000
   185  H          0.31495000       0.88564000       0.18746000
   186  H          0.68505000       0.38564000       0.31254000
   187  H          0.68505000       0.11436000       0.81254000
   188  H          0.31495000       0.61436000       0.68746000
   189  H          0.50661000       0.94397000       0.32576000
   190  H          0.49339000       0.44397000       0.17424000
   191  H          0.49339000       0.05603000       0.67424000
   192  H          0.50661000       0.55603000       0.82576000
   193  H          0.41146000       0.94711000       0.38784000
   194  H          0.58854000       0.44711000       0.11216000
   195  H          0.58854000       0.05289000       0.61216000
   196  H          0.41146000       0.55289000       0.88784000
   197  H          0.37370000       0.01750000       0.30425000
   198  H          0.62630000       0.51750000       0.19575000
   199  H          0.62630000       0.98250000       0.69575000
   200  H          0.37370000       0.48250000       0.80425000
