data_HAYLOM
_symmetry_space_group_name_H-M    'P1'
_symmetry_Int_Tables_number       1
loop_
_symmetry_equiv_pos_site_id
_symmetry_equiv_pos_as_xyz
1 x,y,z
_cell_length_a                   14.97599
_cell_length_b                   9.86334
_cell_length_c                   15.86537
_cell_angle_alpha                90.0
_cell_angle_beta                 113.7136
_cell_angle_gamma                90.0
loop_
_atom_site_label
_atom_site_type_symbol
_atom_site_fract_x
_atom_site_fract_y
_atom_site_fract_z
     1  I          0.48325700       0.83736900       0.32581500
     2  I          0.01674300       0.33736900       0.17418500
     3  I          0.51674300       0.16263100       0.67418500
     4  I          0.98325700       0.66263100       0.82581500
     5  O          0.74855000       0.66856000       0.08615000
     6  O          0.75145000       0.16856000       0.41385000
     7  O          0.25145000       0.33144000       0.91385000
     8  O          0.24855000       0.83144000       0.58615000
     9  H          0.71527800       0.61370500       0.04737700
    10  H          0.78472200       0.11370500       0.45262300
    11  H          0.28472200       0.38629500       0.95262300
    12  H          0.21527800       0.88629500       0.54737700
    13  O          0.68775000       0.67866000       0.89855000
    14  O          0.81225000       0.17866000       0.60145000
    15  O          0.31225000       0.32134000       0.10145000
    16  O          0.18775000       0.82134000       0.39855000
    17  H          0.68662300       0.68553700       0.84657900
    18  H          0.81337700       0.18553700       0.65342100
    19  H          0.31337700       0.31446300       0.15342100
    20  H          0.18662300       0.81446300       0.34657900
    21  O          0.85755000       0.87446000       0.19315000
    22  O          0.64245000       0.37446000       0.30685000
    23  O          0.14245000       0.12554000       0.80685000
    24  O          0.35755000       0.62554000       0.69315000
    25  H          0.84051300       0.80256300       0.20809800
    26  H          0.65948700       0.30256300       0.29190200
    27  H          0.15948700       0.19743700       0.79190200
    28  H          0.34051300       0.69743700       0.70809800
    29  N          0.67496000       0.81787000       0.75666000
    30  N          0.82504000       0.31787000       0.74334000
    31  N          0.32504000       0.18213000       0.24334000
    32  N          0.17496000       0.68213000       0.25666000
    33  C          0.81107000       0.00851000       0.96607000
    34  C          0.68893000       0.50851000       0.53393000
    35  C          0.18893000      -0.00851000       0.03393000
    36  C          0.31107000       0.49149000       0.46607000
    37  H          0.82187300       0.08846000       0.94054800
    38  H          0.67812700       0.58846000       0.55945200
    39  H          0.17812700       0.91154000       0.05945200
    40  H          0.32187300       0.41154000       0.44054800
    41  C          0.84387000      -0.00261000       0.06146000
    42  C          0.65613000       0.49739000       0.43854000
    43  C          0.15613000       0.00261000       0.93854000
    44  C          0.34387000       0.50261000       0.56146000
    45  H          0.88051100       0.06686800       0.09897600
    46  H          0.61948900       0.56686800       0.40102400
    47  H          0.11948900       0.93313200       0.90102400
    48  H          0.38051100       0.43313200       0.59897600
    49  C          0.63567000       0.82899000       0.65997000
    50  C          0.86433000       0.32899000       0.84003000
    51  C          0.36433000       0.17101000       0.34003000
    52  C          0.13567000       0.67101000       0.15997000
    53  C          0.73736000       0.78579000       0.95096000
    54  C          0.76264000       0.28579000       0.54904000
    55  C          0.26264000       0.21421000       0.04904000
    56  C          0.23736000       0.71421000       0.45096000
    57  C          0.76207000       0.90111000       0.90796000
    58  C          0.73793000       0.40111000       0.59204000
    59  C          0.23793000       0.09889000       0.09204000
    60  C          0.26207000       0.59889000       0.40796000
    61  C          0.67638000       0.90381000       0.61097000
    62  C          0.82362000       0.40381000       0.88903000
    63  C          0.32362000       0.09619000       0.38903000
    64  C          0.17638000       0.59619000       0.11097000
    65  H          0.73403800       0.95089800       0.64205500
    66  H          0.76596200       0.45089800       0.85794500
    67  H          0.26596200       0.04910200       0.35794500
    68  H          0.23403800       0.54910200       0.14205500
    69  C          0.54308000       0.83599000       0.46986000
    70  C          0.95692000       0.33599000       0.03014000
    71  C          0.45692000       0.16401000       0.53014000
    72  C          0.04308000       0.66401000       0.96986000
    73  C          0.82197000       0.88241000       0.10067000
    74  C          0.67803000       0.38241000       0.39933000
    75  C          0.17803000       0.11759000       0.89933000
    76  C          0.32197000       0.61759000       0.60067000
    77  C          0.50388000       0.76061200       0.51797000
    78  C         -0.00388000       0.26061200       0.98203000
    79  C          0.49612000       0.23938800       0.48203000
    80  C          0.00388000       0.73938800       0.01797000
    81  H          0.44565000       0.71400400       0.48726600
    82  H          0.05435000       0.21400400       0.01273400
    83  H          0.55435000       0.28599600       0.51273400
    84  H          0.94565000       0.78599600       0.98726600
    85  C          0.72487000       0.91311000       0.81057000
    86  C          0.77513000       0.41311000       0.68943000
    87  C          0.27513000       0.08689000       0.18943000
    88  C          0.22487000       0.58689000       0.31057000
    89  H          0.73691400      -0.00790100       0.78484900
    90  H          0.76308600       0.49209900       0.71515100
    91  H          0.26308600       0.00790100       0.21515100
    92  H          0.23691400       0.50790100       0.28484900
    93  C          0.76917000       0.77589000       0.04376000
    94  C          0.73083000       0.27589000       0.45624000
    95  C          0.23083000       0.22411000       0.95624000
    96  C          0.26917000       0.72411000       0.54376000
    97  C          0.63238000       0.90961000       0.51627000
    98  C          0.86762000       0.40961000       0.98373000
    99  C          0.36762000       0.09039000       0.48373000
   100  C          0.13238000       0.59039000       0.01627000
   101  H          0.65966200       0.96005700       0.48312100
   102  H          0.84033800       0.46005700       0.01687900
   103  H          0.34033800       0.03994300       0.51687900
   104  H          0.15966200       0.53994300       0.98312100
   105  C          0.54988000       0.75351100       0.61097000
   106  C          0.95012000       0.25351100       0.88903000
   107  C          0.45012000       0.24648900       0.38903000
   108  C          0.04988000       0.74648900       0.11097000
   109  H          0.52439300       0.69797200       0.64326500
   110  H          0.97560700       0.19797200       0.85673500
   111  H          0.47560700       0.30202800       0.35673500
   112  H          0.02439300       0.80202800       0.14326500
   113  N          0.38047000       0.86133000       0.78606000
   114  N          0.11953000       0.36133000       0.71394000
   115  N          0.61953000       0.13867000       0.21394000
   116  N          0.88047000       0.63867000       0.28606000
   117  N          0.63097000       0.45828000      -0.00014000
   118  N          0.86903000       0.95828000       0.50014000
   119  N          0.36903000       0.54172000       0.00014000
   120  N          0.13097000       0.04172000       0.49986000
   121  C          0.49298000       0.34869000       0.88508000
   122  C          0.00702000       0.84869000       0.61492000
   123  C          0.50702000       0.65131000       0.11492000
   124  C         -0.00702000       0.15131000       0.38508000
   125  H          0.43510200       0.35716700       0.83284400
   126  H          0.06489800       0.85716700       0.66715600
   127  H          0.56489800       0.64283300       0.16715600
   128  H          0.93510200       0.14283300       0.33284400
   129  C          0.61259000       0.21901100       0.00377000
   130  C          0.88741000       0.71901100       0.49623000
   131  C          0.38741000       0.78098900      -0.00377000
   132  C          0.11259000       0.28098900       0.50377000
   133  H          0.63793000       0.13708900       0.03231600
   134  H          0.86207000       0.63708900       0.46768400
   135  H          0.36207000       0.86291100       0.96768400
   136  H          0.13793000       0.36291100       0.53231600
   137  C          0.33067000       0.97581000       0.78326000
   138  C          0.16933000       0.47581000       0.71674000
   139  C          0.66933000       0.02419000       0.21674000
   140  C          0.83067000       0.52419000       0.28326000
   141  H          0.26377500       0.97554500       0.74798700
   142  H          0.23622500       0.47554500       0.75201300
   143  H          0.73622500       0.02445500       0.25201300
   144  H          0.76377500       0.52445500       0.24798700
   145  C          0.47287000       0.09579000       0.88026000
   146  C          0.02713000       0.59579000       0.61974000
   147  C          0.52713000       0.90421000       0.11974000
   148  C          0.97287000       0.40421000       0.38026000
   149  C          0.37157000       0.09349000       0.82886000
   150  C          0.12843000       0.59349000       0.67114000
   151  C          0.62843000       0.90651000       0.17114000
   152  C          0.87157000       0.40651000       0.32886000
   153  H          0.33334800       0.16906800       0.82583600
   154  H          0.16665200       0.66906800       0.67416400
   155  H          0.66665200       0.83093200       0.17416400
   156  H          0.83334800       0.33093200       0.32583600
   157  C          0.52378000       0.97611000       0.88636000
   158  C          0.97622000       0.47611000       0.61364000
   159  C          0.47622000       0.02389000       0.11364000
   160  C          0.02378000       0.52389000       0.38636000
   161  H          0.59027500       0.97227900       0.92257800
   162  H          0.90972500       0.47227900       0.57742200
   163  H          0.40972500       0.02772100       0.07742200
   164  H          0.09027500       0.52772100       0.42257800
   165  C          0.52447000       0.22139000       0.92436000
   166  C          0.97553000       0.72139000       0.57564000
   167  C          0.47553000       0.77861000       0.07564000
   168  C          0.02447000       0.27861000       0.42436000
   169  C          0.54818000       0.46071000       0.92437000
   170  C          0.95182000       0.96071000       0.57563000
   171  C          0.45182000       0.53929000       0.07563000
   172  C          0.04818000       0.03929000       0.42437000
   173  H          0.52622900       0.54418300       0.89630900
   174  H          0.97377100       0.04418300       0.60369100
   175  H          0.47377100       0.45581700       0.10369100
   176  H          0.02622900       0.95581700       0.39630900
   177  C          0.66028000       0.33781000       0.03867000
   178  C          0.83972000       0.83781000       0.46133000
   179  C          0.33972000       0.66219000       0.96133000
   180  C          0.16028000       0.16219000       0.53867000
   181  H          0.71648800       0.33405200       0.09254700
   182  H          0.78351200       0.83405200       0.40745300
   183  H          0.28351200       0.66594800       0.90745300
   184  H          0.21648800       0.16594800       0.59254700
   185  C          0.47578000       0.86339000       0.83877000
   186  C          0.02422000       0.36339000       0.66123000
   187  C          0.52422000       0.13661000       0.16123000
   188  C          0.97578000       0.63661000       0.33877000
   189  H          0.51145400       0.78449000       0.84350100
   190  H         -0.01145400       0.28449000       0.65649900
   191  H          0.48854600       0.21551000       0.15649900
   192  H          0.01145400       0.71551000       0.34350100
