data_HAZRAF
_symmetry_space_group_name_H-M    'P1'
_symmetry_Int_Tables_number       1
loop_
_symmetry_equiv_pos_site_id
_symmetry_equiv_pos_as_xyz
1 x,y,z
_cell_length_a                   9.6944
_cell_length_b                   12.0085
_cell_length_c                   12.9765
_cell_angle_alpha                74.38018
_cell_angle_beta                 80.892
_cell_angle_gamma                71.042
loop_
_atom_site_label
_atom_site_type_symbol
_atom_site_fract_x
_atom_site_fract_y
_atom_site_fract_z
     1  B          0.17902000       0.60271190       0.75508180
     2  B          0.82098000       0.39728810       0.24491820
     3  N          0.26025180       0.58866150       0.83964130
     4  N          0.73974820       0.41133850       0.16035870
     5  C          0.38382000       0.63656190       0.83021170
     6  C          0.61618000       0.36343810       0.16978830
     7  H          0.46897200       0.57102900       0.85940300
     8  H          0.53102800       0.42897100       0.14059700
     9  H          0.35776300       0.69979800       0.87046200
    10  H          0.64223700       0.30020200       0.12953800
    11  H          0.40745200       0.67089700       0.75446300
    12  H          0.59254800       0.32910300       0.24553700
    13  B          0.03072000       0.55182000       0.76580170
    14  B          0.96928000       0.44818000       0.23419830
    15  N          0.03831170       0.42932140       0.78437120
    16  N          0.96168830       0.57067860       0.21562880
    17  C          0.17122000       0.32976180       0.81065160
    18  C          0.82878000       0.67023820       0.18934840
    19  H          0.18978000       0.27571600       0.76201400
    20  H          0.81022000       0.72428400       0.23798600
    21  H          0.15911500       0.28449100       0.88487600
    22  H          0.84088500       0.71550900       0.11512400
    23  H          0.25393800       0.36211200       0.80274500
    24  H          0.74606200       0.63788800       0.19725500
    25  C          0.91532000       0.38520180       0.78076170
    26  C          0.08468000       0.61479820       0.21923830
    27  H          0.90361500       0.32660200       0.84808200
    28  H          0.09638500       0.67339800       0.15191800
    29  H          0.93436300       0.34602300       0.72059400
    30  H          0.06563700       0.65397700       0.27940600
    31  H          0.82550700       0.45347000       0.77117800
    32  H          0.17449300       0.54653000       0.22882200
    33  C          0.23252000       0.52304190       0.94920160
    34  C          0.76748000       0.47695810       0.05079840
    35  H          0.21605600       0.57623800      -0.00170000
    36  H          0.78394400       0.42376200       0.00170000
    37  H          0.31711900       0.45210600       0.96921400
    38  H          0.68288100       0.54789400       0.03078600
    39  H          0.14561700       0.49668400       0.95367600
    40  H          0.85438300       0.50331600       0.04632400
    41  C          0.21832000       0.67527170       0.63754150
    42  C          0.78168000       0.32472830       0.36245850
    43  C          0.18412000       0.80641170       0.60923150
    44  C          0.81588000       0.19358830       0.39076850
    45  C          0.11462000       0.87490170       0.68602160
    46  C          0.88538000       0.12509830       0.31397840
    47  H          0.09000800       0.83408800       0.75668700
    48  H          0.90999200       0.16591200       0.24331300
    49  C          0.08152000      -0.00117820       0.66153160
    50  C          0.91848000       0.00117820       0.33846840
    51  H          0.03459900       0.04285800       0.71466400
    52  H          0.96540100       0.95714200       0.28533600
    53  C          0.11742000       0.05965180       0.55778160
    54  C          0.88258000       0.94034820       0.44221840
    55  H          0.09530900       0.14533300       0.54037400
    56  H          0.90469100       0.85466700       0.45962600
    57  C          0.18452000      -0.00417830       0.48092160
    58  C          0.81548000       0.00417830       0.51907840
    59  H          0.20853500       0.03847000       0.41086500
    60  H          0.79146500       0.96153000       0.58913500
    61  C          0.21872000       0.86874170       0.50327150
    62  C          0.78128000       0.13125830       0.49672850
    63  C          0.28762000       0.79988170       0.42221150
    64  C          0.71238000       0.20011830       0.57778850
    65  C          0.32902000       0.85448190       0.31553160
    66  C          0.67098000       0.14551810       0.68446840
    67  H          0.30994600       0.93987700       0.29445300
    68  H          0.69005400       0.06012300       0.70554700
    69  C          0.39622000       0.78552000       0.24210160
    70  C          0.60378000       0.21448000       0.75789840
    71  H          0.42501200       0.82356700       0.17149100
    72  H          0.57498800       0.17643300       0.82850900
    73  C          0.42252000       0.65972190       0.27071160
    74  C          0.57748000       0.34027810       0.72928840
    75  H          0.46721000       0.61293400       0.21920300
    76  H          0.53279000       0.38706600       0.78079700
    77  C          0.38352000       0.60410190       0.37317160
    78  C          0.61648000       0.39589810       0.62682840
    79  H          0.40194200       0.51872600       0.39228500
    80  H          0.59805800       0.48127400       0.60771500
    81  C          0.31602000       0.67266170       0.45070150
    82  C          0.68398000       0.32733830       0.54929850
    83  C          0.27942000       0.61410170       0.55875150
    84  C          0.72058000       0.38589830       0.44124850
    85  H          0.29848700       0.52866800       0.57630700
    86  H          0.70151300       0.47133200       0.42369300
    87  C          0.87652000       0.65186170       0.74689150
    88  C          0.12348000       0.34813830       0.25310850
    89  C          0.80272000       0.68270160       0.64946150
    90  C          0.19728000       0.31729840       0.35053850
    91  C          0.86942000       0.62552170       0.56453150
    92  C          0.13058000       0.37447830       0.43546850
    93  H          0.96344900       0.56769800       0.57158500
    94  H          0.03655100       0.43230200       0.42841500
    95  C          0.80142000       0.65161170       0.47200150
    96  C          0.19858000       0.34838830       0.52799850
    97  H          0.84834200       0.61214200       0.41588900
    98  H          0.15165800       0.38785800       0.58411100
    99  C          0.66322000       0.73630180       0.46077160
   100  C          0.33678000       0.26369820       0.53922840
   101  H          0.61525900       0.75346000       0.39737300
   102  H          0.38474100       0.24654000       0.60262700
   103  C          0.59632000       0.79488180       0.54100150
   104  C          0.40368000       0.20511820       0.45899850
   105  H          0.50281000       0.85322200       0.53182800
   106  H          0.49719000       0.14677800       0.46817200
   107  C          0.66342000       0.77024170       0.63677150
   108  C          0.33658000       0.22975830       0.36322850
   109  C          0.59362000       0.83205170       0.72275150
   110  C          0.40638000       0.16794830       0.27724850
   111  C          0.45462000       0.91930180       0.71750160
   112  C          0.54538000       0.08069820       0.28249840
   113  H          0.40441700       0.94193400       0.65433200
   114  H          0.59558300       0.05806600       0.34566800
   115  C          0.39022000       0.97218180       0.80162160
   116  C          0.60978000       0.02781820       0.19837840
   117  H          0.29631900       0.03041000       0.79626100
   118  H          0.70368100       0.96959000       0.20373900
   119  C          0.46242000       0.94063180       0.89517160
   120  C          0.53758000       0.05936820       0.10482840
   121  H          0.41712000       0.97663200       0.95362000
   122  H          0.58288000       0.02336800       0.04638000
   123  C          0.59842000       0.85768180       0.90232160
   124  C          0.40158000       0.14231820       0.09767840
   125  H          0.64744600       0.83760700       0.96568000
   126  H          0.35255400       0.16239300       0.03432000
   127  C          0.66752000       0.80119170       0.81690150
   128  C          0.33248000       0.19880830       0.18309850
   129  C          0.80852000       0.71340170       0.82426150
   130  C          0.19148000       0.28659830       0.17573850
   131  H          0.85793900       0.69683900       0.88681800
   132  H          0.14206100       0.30316100       0.11318200
   133  C          0.12332000       0.90782000       0.03601170
   134  C          0.87668000       0.09218000       0.96398830
   135  H          0.20794500       0.84435500       0.06085200
   136  H          0.79205500       0.15564500       0.93914800
   137  C          0.08903000       0.01772000       0.06361170
   138  C          0.91097000       0.98228000       0.93638830
   139  H          0.15030700       0.02979400       0.10722500
   140  H          0.84969300       0.97020600       0.89277500
   141  C          0.96607000       0.10952000       0.02810170
   142  C          0.03393000       0.89048000       0.97189830
   143  H          0.94250000       0.18478500       0.04748100
   144  H          0.05750000       0.81521500       0.95251900
