data_HEBFAX
_symmetry_space_group_name_H-M    'P1'
_symmetry_Int_Tables_number       1
loop_
_symmetry_equiv_pos_site_id
_symmetry_equiv_pos_as_xyz
1 x,y,z
_cell_length_a                   7.281014
_cell_length_b                   12.7632
_cell_length_c                   12.7892
_cell_angle_alpha                62.54317
_cell_angle_beta                 76.38416
_cell_angle_gamma                74.38415
loop_
_atom_site_label
_atom_site_type_symbol
_atom_site_fract_x
_atom_site_fract_y
_atom_site_fract_z
     1  Cl         0.82838900       0.66661500       0.45433500
     2  Cl         0.17161100       0.33338500       0.54566500
     3  Cl         0.68656100       0.36859500       0.48313600
     4  Cl         0.31343900       0.63140500       0.51686400
     5  N          0.76733000       0.82269150       0.57559160
     6  N          0.23267000       0.17730850       0.42440840
     7  O          0.77723000       0.97560120       0.34617140
     8  O          0.22277000       0.02439880       0.65382860
     9  C          0.75493000       0.70335170       0.65420170
    10  C          0.24507000       0.29664830       0.34579830
    11  O          0.72882000       0.90670120       0.70359120
    12  O          0.27118000       0.09329880       0.29640880
    13  C          0.74773000       0.91781180       0.60184180
    14  C          0.25227000       0.08218820       0.39815820
    15  C          0.74693000       0.03973170       0.49884170
    16  C          0.25307000       0.96026830       0.50115830
    17  C          0.75533000       0.06656170       0.37874170
    18  C          0.24467000       0.93343830       0.62125830
    19  C          0.72973000       0.13411180       0.52891180
    20  C          0.27027000       0.86588820       0.47108820
    21  H          0.72680000       0.11810000       0.60790000
    22  H          0.27320000       0.88190000       0.39210000
    23  C          0.72343000       0.27652180       0.32606190
    24  C          0.27657000       0.72347820       0.67393810
    25  H          0.71400000       0.35560000       0.26870000
    26  H          0.28600000       0.64440000       0.73130000
    27  C          0.74393000       0.18462180       0.29417180
    28  C          0.25607000       0.81537820       0.70582820
    29  H          0.75020000       0.20190000       0.21450000
    30  H          0.24980000       0.79810000       0.78550000
    31  C          0.78153000       0.62020180       0.60613170
    32  C          0.21847000       0.37979820       0.39386830
    33  C          0.71683000       0.25071180       0.44352000
    34  C          0.28317000       0.74928820       0.55648000
    35  C          0.71213000       0.66365180       0.77644170
    36  C          0.28787000       0.33634820       0.22355830
    37  H          0.69670000       0.71670000       0.81030000
    38  H          0.30330000       0.28330000       0.18970000
    39  C          0.76543000       0.50261190       0.67792000
    40  C          0.23457000       0.49738810       0.32208000
    41  H          0.78490000       0.44800000       0.64550000
    42  H          0.21510000       0.55200000       0.35450000
    43  N          0.70203000       0.34101180       0.87502000
    44  N          0.29797000       0.65898820       0.12498000
    45  C          0.72023000       0.46690180       0.79832000
    46  C          0.27977000       0.53309820       0.20168000
    47  O          0.63033000       0.31535160       0.97893170
    48  O          0.36967000       0.68464840       0.02106830
    49  C          0.69233000       0.54577190       0.84816190
    50  C          0.30767000       0.45422810       0.15183810
    51  H          0.66030000       0.52000000       0.92990000
    52  H          0.33970000       0.48000000       0.07010000
    53  O          0.75713000       0.26871160       0.83186180
    54  O          0.24287000       0.73128840       0.16813820
    55  H          0.78430000       0.83991700       0.50301700
    56  H          0.21570000       0.16008300       0.49698300
    57  H          0.72940000       0.00220000       0.28120000
    58  H          0.27060000      -0.00220000       0.71880000
    59  O          0.83132000       0.53996130       0.10344140
    60  O          0.16868000       0.46003870       0.89655860
    61  O          0.01122000       0.64742120       0.94154880
    62  O          0.98878000       0.35257880       0.05845120
    63  C          0.81253000       0.74376170       0.05846170
    64  C          0.18747000       0.25623830       0.94153830
    65  C          0.88993000       0.63830180       0.03229190
    66  C          0.11007000       0.36169820       0.96770810
    67  C          0.67943000       0.94407170       0.10838180
    68  C          0.32057000       0.05592830       0.89161820
    69  C          0.85503000       0.85530170       0.97670830
    70  C          0.14497000       0.14469830       0.02329170
    71  H          0.92870000       0.86330000       0.90430000
    72  H          0.07130000       0.13670000       0.09570000
    73  N          0.62153000       0.04237170       0.13879180
    74  N          0.37847000       0.95762830       0.86120820
    75  C          0.78903000       0.95458180       0.00159180
    76  C          0.21097000       0.04541820      -0.00159180
    77  H          0.81880000       0.02870000       0.94610000
    78  H          0.18120000       0.97130000       0.05390000
    79  C          0.69973000       0.73407180       0.16476180
    80  C          0.30027000       0.26592820       0.83523820
    81  H          0.66820000       0.66020000       0.21990000
    82  H          0.33180000       0.33980000       0.78010000
    83  C          0.63353000       0.83320180       0.18968180
    84  C          0.36647000       0.16679820       0.81031820
    85  H          0.55770000       0.82570000       0.26140000
    86  H          0.44230000       0.17430000       0.73860000
    87  H          0.63230000       0.11541500       0.07321500
    88  H          0.36770000       0.88458500       0.92678500
    89  H          0.88850000       0.47120000       0.08630000
    90  H          0.11150000       0.52880000       0.91370000
    91  H          0.49820000       0.04320000       0.18641800
    92  H          0.50180000       0.95680000       0.81358200
