data_HEBFEB
_symmetry_space_group_name_H-M    'P1'
_symmetry_Int_Tables_number       1
loop_
_symmetry_equiv_pos_site_id
_symmetry_equiv_pos_as_xyz
1 x,y,z
_cell_length_a                   9.13717
_cell_length_b                   10.88099
_cell_length_c                   22.449717
_cell_angle_alpha                90.0
_cell_angle_beta                 99.9248
_cell_angle_gamma                90.0
loop_
_atom_site_label
_atom_site_type_symbol
_atom_site_fract_x
_atom_site_fract_y
_atom_site_fract_z
     1  Cl        -0.00946900       0.22920800       0.39604400
     2  Cl         0.00946900       0.72920800       0.10395600
     3  Cl         0.00946900       0.77079200       0.60395600
     4  Cl        -0.00946900       0.27079200       0.89604400
     5  Cl         0.03831140       0.03258120       0.78358500
     6  Cl         0.96168860       0.53258120       0.71641500
     7  Cl         0.96168860       0.96741880       0.21641500
     8  Cl         0.03831140       0.46741880       0.28358500
     9  O          0.14733000       0.19962000       0.54682120
    10  O          0.85267000       0.69962000       0.95317880
    11  O          0.85267000       0.80038000       0.45317880
    12  O          0.14733000       0.30038000       0.04682120
    13  C          0.77634000       0.11293000       0.44486150
    14  C          0.22366000       0.61293000       0.05513850
    15  C          0.22366000       0.88707000       0.55513850
    16  C          0.77634000       0.38707000       0.94486150
    17  N          0.87793000       0.12083000       0.49860130
    18  N          0.12207000       0.62083000       0.00139870
    19  N          0.12207000       0.87917000       0.50139870
    20  N          0.87793000       0.37917000      -0.00139870
    21  O          0.74563000       0.03172000       0.56420110
    22  O          0.25437000       0.53172000       0.93579890
    23  O          0.25437000       0.96828000       0.43579890
    24  O          0.74563000       0.46828000       0.06420110
    25  C         -0.01516000       0.10643000       0.60637150
    26  C          0.01516000       0.60643000       0.89362850
    27  C          0.01516000       0.89357000       0.39362850
    28  C         -0.01516000       0.39357000       0.10637150
    29  C          0.63704000       0.05813000       0.44007150
    30  C          0.36296000       0.55813000       0.05992850
    31  C          0.36296000       0.94187000       0.55992850
    32  C          0.63704000       0.44187000       0.94007150
    33  H          0.60880000       0.02250000       0.47400000
    34  H          0.39120000       0.52250000       0.02600000
    35  H          0.39120000       0.97750000       0.52600000
    36  H          0.60880000       0.47750000       0.97400000
    37  C          0.12054000       0.16313000       0.60201160
    38  C          0.87946000       0.66313000       0.89798840
    39  C          0.87946000       0.83687000       0.39798840
    40  C          0.12054000       0.33687000       0.10201160
    41  C          0.54054000       0.05583000       0.38573160
    42  C          0.45946000       0.55583000       0.11426840
    43  C          0.45946000       0.94417000       0.61426840
    44  C          0.54054000       0.44417000       0.88573160
    45  H          0.44810000       0.01820000       0.38270000
    46  H          0.55190000       0.51820000       0.11730000
    47  H          0.55190000       0.98180000       0.61730000
    48  H          0.44810000       0.48180000       0.88270000
    49  C          0.85974000       0.08193000       0.55526160
    50  C          0.14026000       0.58193000       0.94473840
    51  C          0.14026000       0.91807000       0.44473840
    52  C          0.85974000       0.41807000       0.05526160
    53  C          0.81624000       0.16413000       0.39233160
    54  C          0.18376000       0.66413000       0.10766840
    55  C          0.18376000       0.83587000       0.60766840
    56  C          0.81624000       0.33587000       0.89233160
    57  C          0.58314000       0.11023000       0.33569160
    58  C          0.41686000       0.61023000       0.16430840
    59  C          0.41686000       0.88977000       0.66430840
    60  C          0.58314000       0.38977000       0.83569160
    61  C          0.06874000       0.08503000       0.71337160
    62  C          0.93126000       0.58503000       0.78662840
    63  C          0.93126000       0.91497000       0.28662840
    64  C          0.06874000       0.41497000       0.21337160
    65  C          0.72104000       0.16403000       0.33843160
    66  C          0.27896000       0.66403000       0.16156840
    67  C          0.27896000       0.83597000       0.66156840
    68  C          0.72104000       0.33597000       0.83843160
    69  H          0.74830000       0.19930000       0.30430000
    70  H          0.25170000       0.69930000       0.19570000
    71  H          0.25170000       0.80070000       0.69570000
    72  H          0.74830000       0.30070000       0.80430000
    73  C          0.96224000       0.06773000       0.66333150
    74  C          0.03776000       0.56773000       0.83666850
    75  C          0.03776000       0.93227000       0.33666850
    76  C          0.96224000       0.43227000       0.16333150
    77  H          0.87330000       0.02960000       0.66730000
    78  H          0.12670000       0.52960000       0.83270000
    79  H          0.12670000       0.97040000       0.33270000
    80  H          0.87330000       0.47040000       0.16730000
    81  O          0.51493000       0.16543000       0.23541130
    82  O          0.48507000       0.66543000       0.26458870
    83  O          0.48507000       0.83457000       0.76458870
    84  O          0.51493000       0.33457000       0.73541130
    85  N          0.47934000       0.11143000       0.27833160
    86  N          0.52066000       0.61143000       0.22166840
    87  N          0.52066000       0.88857000       0.72166840
    88  N          0.47934000       0.38857000       0.77833160
    89  C          0.22754000       0.18023000       0.65342170
    90  C          0.77246000       0.68023000       0.84657830
    91  C          0.77246000       0.81977000       0.34657830
    92  C          0.22754000       0.31977000       0.15342170
    93  H          0.31690000       0.21820000       0.65010000
    94  H          0.68310000       0.71820000       0.84990000
    95  H          0.68310000       0.78180000       0.34990000
    96  H          0.31690000       0.28180000       0.15010000
    97  C          0.20264000       0.14173000       0.70902180
    98  C          0.79736000       0.64173000       0.79097820
    99  C          0.79736000       0.85827000       0.29097820
   100  C          0.20264000       0.35827000       0.20902180
   101  H          0.27440000       0.15340000       0.74330000
   102  H          0.72560000       0.65340000       0.75670000
   103  H          0.72560000       0.84660000       0.25670000
   104  H          0.27440000       0.34660000       0.24330000
   105  O          0.35934000       0.06254000       0.27574140
   106  O          0.64066000       0.56254000       0.22425860
   107  O          0.64066000       0.93746000       0.72425860
   108  O          0.35934000       0.43746000       0.77574140
   109  H          0.24040000       0.22230000       0.54781800
   110  H          0.75960000       0.72230000       0.95218200
   111  H          0.75960000       0.77770000       0.45218200
   112  H          0.24040000       0.27770000       0.04781800
   113  H          0.96340000       0.15630000       0.49471700
   114  H          0.03660000       0.65630000       0.00528300
   115  H          0.03660000       0.84370000       0.50528300
   116  H          0.96340000       0.34370000      -0.00528300
   117  O          0.89683000       0.42992000       0.56298110
   118  O          0.10317000       0.92992000       0.93701890
   119  O          0.10317000       0.57008000       0.43701890
   120  O          0.89683000       0.07008000       0.06298110
   121  N          0.66203000       0.34932000       0.55581120
   122  N          0.33797000       0.84932000       0.94418880
   123  N          0.33797000       0.65068000       0.44418880
   124  N          0.66203000       0.15068000       0.05581120
   125  N          0.57893000       0.43562000       0.37779140
   126  N          0.42107000       0.93562000       0.12220860
   127  N          0.42107000       0.56438000       0.62220860
   128  N          0.57893000       0.06438000       0.87779140
   129  O          0.43033000       0.26732000       0.55059120
   130  O          0.56967000       0.76732000       0.94940880
   131  O          0.56967000       0.73268000       0.44940880
   132  O          0.43033000       0.23268000       0.05059120
   133  N          0.48973000       0.34362000       0.46408140
   134  N          0.51027000       0.84362000       0.03591860
   135  N          0.51027000       0.65638000       0.53591860
   136  N          0.48973000       0.15638000       0.96408140
   137  N          0.80574000       0.48763000       0.42699140
   138  N          0.19426000      -0.01237000       0.07300860
   139  N          0.19426000       0.51237000       0.57300860
   140  N          0.80574000       0.01237000       0.92699140
   141  C          0.59574000       0.40193000       0.43709160
   142  C          0.40426000       0.90193000       0.06290840
   143  C          0.40426000       0.59807000       0.56290840
   144  C          0.59574000       0.09807000       0.93709160
   145  C          0.77694000       0.40663000       0.53115160
   146  C          0.22306000       0.90663000       0.96884840
   147  C          0.22306000       0.59337000       0.46884840
   148  C          0.77694000       0.09337000       0.03115160
   149  C          0.73234000       0.43163000       0.46866160
   150  C          0.26766000       0.93163000       0.03133840
   151  C          0.26766000       0.56837000       0.53133840
   152  C          0.73234000       0.06837000       0.96866160
   153  C          0.52214000       0.31753000       0.52441180
   154  C          0.47786000       0.81753000       0.97558820
   155  C          0.47786000       0.68247000       0.47558820
   156  C          0.52214000       0.18247000       0.02441180
   157  C          0.34544000       0.30843000       0.42931180
   158  C          0.65456000       0.80843000       0.07068820
   159  C          0.65456000       0.69157000       0.57068820
   160  C          0.34544000       0.19157000       0.92931180
   161  H          0.33070000       0.22170000       0.43350000
   162  H          0.66930000       0.72170000       0.06650000
   163  H          0.66930000       0.77830000       0.56650000
   164  H          0.33070000       0.27830000       0.93350000
   165  H          0.34270000       0.32780000       0.38740000
   166  H          0.65730000       0.82780000       0.11260000
   167  H          0.65730000       0.67220000       0.61260000
   168  H          0.34270000       0.17220000       0.88740000
   169  H          0.26810000       0.35250000       0.44410000
   170  H          0.73190000       0.85250000       0.05590000
   171  H          0.73190000       0.64750000       0.55590000
   172  H          0.26810000       0.14750000       0.94410000
   173  C          0.68924000       0.32313000       0.62116150
   174  C          0.31076000       0.82313000       0.87883850
   175  C          0.31076000       0.67687000       0.37883850
   176  C          0.68924000       0.17687000       0.12116150
   177  H          0.63310000       0.37940000       0.64130000
   178  H          0.36690000       0.87940000       0.85870000
   179  H          0.36690000       0.62060000       0.35870000
   180  H          0.63310000       0.12060000       0.14130000
   181  H          0.79310000       0.33250000       0.63690000
   182  H          0.20690000       0.83250000       0.86310000
   183  H          0.20690000       0.66750000       0.36310000
   184  H          0.79310000       0.16750000       0.13690000
   185  H          0.65910000       0.24050000       0.62790000
   186  H          0.34090000       0.74050000       0.87210000
   187  H          0.34090000       0.75950000       0.37210000
   188  H          0.65910000       0.25950000       0.12790000
   189  C          0.71044000       0.48703000       0.37511180
   190  C          0.28956000       0.98703000       0.12488820
   191  C          0.28956000       0.51297000       0.62488820
   192  C          0.71044000       0.01297000       0.87511180
   193  H          0.73360000       0.51980000       0.33960000
   194  H          0.26640000       0.01980000       0.16040000
   195  H          0.26640000       0.48020000       0.66040000
   196  H          0.73360000       0.98020000       0.83960000
   197  H          0.90540000       0.51730000       0.43621500
   198  H          0.09460000       0.01730000       0.06378500
   199  H          0.09460000       0.48270000       0.56378500
   200  H          0.90540000       0.98270000       0.93621500
