data_HEBQIO
_symmetry_space_group_name_H-M    'P1'
_symmetry_Int_Tables_number       1
loop_
_symmetry_equiv_pos_site_id
_symmetry_equiv_pos_as_xyz
1 x,y,z
_cell_length_a                   11.7064
_cell_length_b                   12.0636
_cell_length_c                   12.7934
_cell_angle_alpha                109.182
_cell_angle_beta                 110.221
_cell_angle_gamma                99.672
loop_
_atom_site_label
_atom_site_type_symbol
_atom_site_fract_x
_atom_site_fract_y
_atom_site_fract_z
     1  P          0.51678800       0.67185700       0.74501800
     2  P          0.48321200       0.32814300       0.25498200
     3  P          0.54903700       0.45405600       0.55748700
     4  P          0.45096300       0.54594400       0.44251300
     5  P          0.73080700       0.55162600       0.81672700
     6  P          0.26919300       0.44837400       0.18327300
     7  Cl         0.43456800       0.62681800       0.86170900
     8  Cl         0.56543200       0.37318200       0.13829100
     9  C          0.60273000       0.57112000       0.71253000
    10  C          0.39727000       0.42888000       0.28747000
    11  C          0.63863000       0.82133000       0.86153000
    12  C          0.36137000       0.17867000       0.13847000
    13  C          0.74193000       0.86463000       0.83983000
    14  C          0.25807000       0.13537000       0.16017000
    15  H          0.75163000       0.81443000       0.77283000
    16  H          0.24837000       0.18557000       0.22717000
    17  C          0.83124000       0.98173000       0.91674000
    18  C          0.16876000       0.01827000       0.08326000
    19  H          0.90064000       0.00823000       0.90134000
    20  H          0.09936000      -0.00823000       0.09866000
    21  C          0.81795000       0.05783000       0.01414000
    22  C          0.18205000       0.94217000       0.98586000
    23  H          0.87875000       0.13533000       0.06654000
    24  H          0.12125000       0.86467000       0.93346000
    25  C          0.71405000       0.01893000       0.03394000
    26  C          0.28595000       0.98107000       0.96606000
    27  H          0.70335000       0.07213000       0.09884000
    28  H          0.29665000       0.92787000       0.90116000
    29  C          0.62284000       0.90073000       0.95914000
    30  C          0.37716000       0.09927000       0.04086000
    31  H          0.55294000       0.87583000       0.97444000
    32  H          0.44706000       0.12417000       0.02556000
    33  C          0.40623000       0.33243000       0.52603000
    34  C          0.59377000       0.66757000       0.47397000
    35  C          0.30593000       0.35423000       0.55273000
    36  C          0.69407000       0.64577000       0.44727000
    37  H          0.30673000       0.43533000       0.58783000
    38  H          0.69327000       0.56467000       0.41217000
    39  C          0.20314000       0.25734000       0.52844000
    40  C          0.79686000       0.74266000       0.47156000
    41  H          0.13574000       0.27434000       0.54604000
    42  H          0.86426000       0.72566000       0.45396000
    43  C          0.20075000       0.13644000       0.47824000
    44  C          0.79925000       0.86356000       0.52176000
    45  H          0.13285000       0.07174000       0.46334000
    46  H          0.86715000       0.92826000       0.53666000
    47  C          0.30006000       0.11283000       0.45074000
    48  C          0.69994000       0.88717000       0.54926000
    49  H          0.29846000       0.03133000       0.41604000
    50  H          0.70154000       0.96867000       0.58396000
    51  C          0.40334000       0.20853000       0.47364000
    52  C          0.59666000       0.79147000       0.52636000
    53  H          0.46984000       0.19093000       0.45454000
    54  H          0.53016000       0.80907000       0.54546000
    55  C          0.68793000       0.39292000       0.80333000
    56  C          0.31207000       0.60708000       0.19667000
    57  C          0.56843000       0.34343000       0.79903000
    58  C          0.43157000       0.65657000       0.20097000
    59  H          0.51213000       0.38943000       0.79763000
    60  H          0.48787000       0.61057000       0.20237000
    61  C          0.53284000       0.22613000       0.79673000
    62  C          0.46716000       0.77387000       0.20327000
    63  H          0.45444000       0.19503000       0.79663000
    64  H          0.54556000       0.80497000       0.20337000
    65  C          0.61574000       0.15593000       0.79474000
    66  C          0.38426000       0.84407000       0.20526000
    67  H          0.59234000       0.07693000       0.79174000
    68  H          0.40766000       0.92307000       0.20826000
    69  C          0.73204000       0.20353000       0.79714000
    70  C          0.26796000       0.79647000       0.20286000
    71  H          0.78714000       0.15623000       0.79634000
    72  H          0.21286000       0.84377000       0.20366000
    73  C          0.76973000       0.32163000       0.80073000
    74  C          0.23027000       0.67837000       0.19927000
    75  H          0.84853000       0.35213000       0.80133000
    76  H          0.15147000       0.64787000       0.19867000
    77  C          0.77953000       0.64862000       0.97733000
    78  C          0.22047000       0.35138000       0.02267000
    79  C          0.72053000       0.61133000       0.04353000
    80  C          0.27947000       0.38867000       0.95647000
    81  H          0.65363000       0.53703000       0.00453000
    82  H          0.34637000       0.46297000      -0.00453000
    83  C          0.76083000       0.68413000       0.16703000
    84  C          0.23917000       0.31587000       0.83297000
    85  H          0.72083000       0.65853000       0.21033000
    86  H          0.27917000       0.34147000       0.78967000
    87  C          0.86064000       0.79483000       0.22603000
    88  C          0.13936000       0.20517000       0.77397000
    89  H          0.88794000       0.84323000       0.30903000
    90  H          0.11206000       0.15677000       0.69097000
    91  C          0.91933000       0.83313000       0.16153000
    92  C          0.08067000       0.16687000       0.83847000
    93  H         -0.01457000       0.90803000       0.20083000
    94  H          0.01457000       0.09197000       0.79917000
    95  C          0.88023000       0.76043000       0.03853000
    96  C          0.11977000       0.23957000       0.96147000
    97  H          0.92143000       0.78623000      -0.00387000
    98  H          0.07857000       0.21377000       0.00387000
    99  C          0.87773000       0.57972000       0.79663000
   100  C          0.12227000       0.42028000       0.20337000
   101  C          0.87753000       0.60173000       0.69653000
   102  C          0.12247000       0.39827000       0.30347000
   103  H          0.80303000       0.60553000       0.64183000
   104  H          0.19697000       0.39447000       0.35817000
   105  C         -0.01296000       0.61804000       0.67814000
   106  C          0.01296000       0.38196000       0.32186000
   107  H         -0.01416000       0.63334000       0.61124000
   108  H          0.01416000       0.36666000       0.38876000
   109  C          0.09824000       0.61213000       0.75724000
   110  C          0.90176000       0.38787000       0.24276000
   111  H          0.17084000       0.62013000       0.74214000
   112  H          0.82916000       0.37987000       0.25786000
   113  C          0.10113000       0.59403000       0.85944000
   114  C          0.89887000       0.40597000       0.14056000
   115  H          0.17653000       0.59233000       0.91464000
   116  H          0.82347000       0.40767000       0.08536000
   117  C         -0.00777000       0.57873000       0.87933000
   118  C          0.00777000       0.42127000       0.12067000
   119  H         -0.00487000       0.56763000       0.94863000
   120  H          0.00487000       0.43237000       0.05137000
   121  O          0.90413000       0.14033000       0.48723000
   122  O          0.09587000       0.85967000       0.51277000
   123  C          0.81435000       0.09494000       0.36555000
   124  C          0.18565000       0.90506000       0.63445000
   125  H          0.77495000       0.00624000       0.33345000
   126  H          0.22505000      -0.00624000       0.66655000
   127  H          0.85655000       0.11074000       0.31625000
   128  H          0.14345000       0.88926000       0.68375000
   129  C          0.71456000       0.15746000       0.35955000
   130  C          0.28544000       0.84254000       0.64045000
   131  H          0.69886000       0.18776000       0.29605000
   132  H          0.30114000       0.81224000       0.70395000
   133  H          0.63446000       0.10216000       0.34445000
   134  H          0.36554000       0.89784000       0.65555000
   135  C          0.77081000       0.25741000       0.47886000
   136  C          0.22919000       0.74259000       0.52114000
   137  H          0.80441000       0.33411000       0.47446000
   138  H          0.19559000       0.66589000       0.52554000
   139  H          0.70611000       0.26641000       0.50936000
   140  H          0.29389000       0.73359000       0.49064000
   141  C          0.87106000       0.23345000       0.55935000
   142  C          0.12894000       0.76655000       0.44065000
   143  H          0.94466000       0.30785000       0.61015000
   144  H          0.05534000       0.69215000       0.38985000
   145  H          0.84286000       0.20615000       0.61235000
   146  H          0.15714000       0.79385000       0.38765000
