data_HEBXES
_symmetry_space_group_name_H-M    'P1'
_symmetry_Int_Tables_number       1
loop_
_symmetry_equiv_pos_site_id
_symmetry_equiv_pos_as_xyz
1 x,y,z
_cell_length_a                   7.569212
_cell_length_b                   13.5442
_cell_length_c                   13.7812
_cell_angle_alpha                91.3854
_cell_angle_beta                 101.1283
_cell_angle_gamma                104.2573
loop_
_atom_site_label
_atom_site_type_symbol
_atom_site_fract_x
_atom_site_fract_y
_atom_site_fract_z
     1  I          0.38563600       0.61870300       0.17955300
     2  I          0.61436400       0.38129700       0.82044700
     3  I          0.29920600       0.33095300       0.16696300
     4  I          0.70079400       0.66904700       0.83303700
     5  S          0.31132000       0.58614120       0.40180110
     6  S          0.68868000       0.41385880       0.59819890
     7  S          0.23033000       0.36323130       0.39086120
     8  S          0.76967000       0.63676870       0.60913880
     9  S          0.24892000       0.58856130       0.62595110
    10  S          0.75108000       0.41143870       0.37404890
    11  S          0.16203000       0.36307140       0.61323130
    12  S          0.83797000       0.63692860       0.38676870
    13  O          0.20398000       0.58634000       0.81143000
    14  O          0.79602000       0.41366000       0.18857000
    15  O          0.11589000       0.36784000       0.79874000
    16  O          0.88411000       0.63216000       0.20126000
    17  C          0.31528000       0.52435000       0.28974000
    18  C          0.68472000       0.47565000       0.71026000
    19  C          0.27758000       0.42295000       0.28544000
    20  C          0.72242000       0.57705000       0.71456000
    21  C          0.25218000       0.47535000       0.46184000
    22  C          0.74782000       0.52465000       0.53816000
    23  C          0.22398000       0.47515000       0.55594000
    24  C          0.77602000       0.52485000       0.44406000
    25  C          0.19689000       0.52645000       0.73024000
    26  C          0.80311000       0.47355000       0.26976000
    27  C          0.15711000       0.42516000       0.72355000
    28  C          0.84289000       0.57484000       0.27645000
    29  C          0.13691300       0.53127000       0.88775000
    30  C          0.86308700       0.46873000       0.11225000
    31  H          0.00390000       0.52430000       0.87850000
    32  H         -0.00390000       0.47570000       0.12150000
    33  H          0.19600000       0.56970000       0.95080000
    34  H          0.80400000       0.43030000       0.04920000
    35  C          0.17141300       0.42767000       0.89155000
    36  C          0.82858700       0.57233000       0.10845000
    37  H          0.30330000       0.43500000       0.91620000
    38  H          0.69670000       0.56500000       0.08380000
    39  H          0.10530000       0.39070000       0.93870000
    40  H          0.89470000       0.60930000       0.06130000
    41  I          0.68261800       0.16472400       0.21212300
    42  I          0.31738200       0.83527600       0.78787700
    43  I          0.69067600       0.88781700       0.20886300
    44  I          0.30932400       0.11218300       0.79113700
    45  S          0.73353000       0.14493130       0.44817110
    46  S          0.26647000       0.85506870       0.55182890
    47  S          0.74012000       0.92967880       0.44827110
    48  S          0.25988000       0.07032120       0.55172890
    49  S          0.77723000       0.16310120       0.67912110
    50  S          0.22277000       0.83689880       0.32087890
    51  S          0.77802000       0.94539870       0.68940110
    52  S          0.22198000       0.05460130       0.31059890
    53  O          0.82987000       0.18314000       0.87343000
    54  O          0.17013000       0.81686000       0.12657000
    55  O          0.81847000       0.96956000       0.88483000
    56  O          0.18153000       0.03044000       0.11517000
    57  C          0.72259000       0.08145000       0.33514000
    58  C          0.27741000       0.91855000       0.66486000
    59  C          0.72618000       0.98405000       0.33504000
    60  C          0.27382000       0.01595000       0.66496000
    61  C          0.74809000       0.04045000       0.51734000
    62  C          0.25191000       0.95955000       0.48266000
    63  C          0.76629000       0.04725000       0.61714000
    64  C          0.23371000       0.95275000       0.38286000
    65  C          0.80458000       0.11545000       0.79504000
    66  C          0.19542000       0.88455000       0.20496000
    67  C          0.80388000       0.01805000       0.79984000
    68  C          0.19612000       0.98195000       0.20016000
    69  C          0.88111100       0.13806000       0.96595000
    70  C          0.11888900       0.86194000       0.03405000
    71  H          0.85470000       0.17570000       0.01990000
    72  H          0.14530000       0.82430000       0.98010000
    73  H          0.01370000       0.14300000       0.97940000
    74  H         -0.01370000       0.85700000       0.02060000
    75  C          0.77701000       0.02946000       0.96105000
    76  C          0.22299000       0.97054000       0.03895000
    77  H          0.80940000       0.00210000       0.02460000
    78  H          0.19060000      -0.00210000       0.97540000
    79  H          0.64440000       0.02450000       0.94780000
    80  H          0.35560000       0.97550000       0.05220000
    81  Cl         0.54203000       0.75498130       0.00854120
    82  Cl         0.45797000       0.24501870      -0.00854120
