data_HECMEK
_symmetry_space_group_name_H-M    'P1'
_symmetry_Int_Tables_number       1
loop_
_symmetry_equiv_pos_site_id
_symmetry_equiv_pos_as_xyz
1 x,y,z
_cell_length_a                   7.59707
_cell_length_b                   11.666512
_cell_length_c                   7.67548
_cell_angle_alpha                90.0
_cell_angle_beta                 114.2003
_cell_angle_gamma                90.0
loop_
_atom_site_label
_atom_site_type_symbol
_atom_site_fract_x
_atom_site_fract_y
_atom_site_fract_z
     1  C          0.43713000       0.45466190       0.31793000
     2  C          0.43713000       0.54533810       0.81793000
     3  H          0.35701500       0.51507000       0.31731800
     4  H          0.35701500       0.48493000       0.81731800
     5  C          0.62963000       0.46492000       0.42493000
     6  C          0.62963000       0.53508000       0.92493000
     7  H          0.67799200       0.53111000       0.49594300
     8  H          0.67799200       0.46889000      -0.00405700
     9  C          0.75283000       0.37852000       0.42893000
    10  C          0.75283000       0.62148000       0.92893000
    11  C          0.67093000       0.28372000       0.32293000
    12  C          0.67093000       0.71628000       0.82293000
    13  H          0.74811200       0.22219100       0.32163200
    14  H          0.74811200       0.77780900       0.82163200
    15  C          0.47634000       0.27862000       0.21883000
    16  C          0.47634000       0.72138000       0.71883000
    17  H          0.42439500       0.21287700       0.14765600
    18  H          0.42439500       0.78712300       0.64765600
    19  C          0.96623000       0.38682000       0.54594000
    20  C          0.96623000       0.61318000       0.04594000
    21  H          0.01161600       0.46029600       0.52599500
    22  H          0.01161600       0.53970400       0.02599500
    23  H          0.03077900       0.32749000       0.50790700
    24  H          0.03077900       0.67251000       0.00790700
    25  H         -0.00733000       0.37783400       0.67866400
    26  H         -0.00733000       0.62216600       0.17866400
    27  N          0.35813000       0.36282170       0.21433000
    28  N          0.35813000       0.63717830       0.71433000
    29  C          0.36883000       0.10370170       0.71423000
    30  C          0.36883000       0.89629830       0.21423000
    31  C          0.44353000       0.20303170       0.67203000
    32  C          0.44353000       0.79696830       0.17203000
    33  H          0.36707700       0.24731800       0.56761800
    34  H          0.36707700       0.75268200       0.06761800
    35  C          0.62693000       0.23627160       0.78163000
    36  C          0.62693000       0.76372840       0.28163000
    37  H          0.67345600       0.30354400       0.75085800
    38  H          0.67345600       0.69645600       0.25085800
    39  C          0.74643000       0.17333180       0.93713000
    40  C          0.74643000       0.82666820       0.43713000
    41  C          0.67313000       0.07378170       0.97903000
    42  C          0.67313000       0.92621830       0.47903000
    43  H          0.75078000       0.02955200       0.08292000
    44  H          0.75078000       0.97044800       0.58292000
    45  C          0.48933000       0.03939180       0.87103000
    46  C          0.48933000       0.96060820       0.37103000
    47  H          0.44328100       0.97204500       0.90212600
    48  H          0.44328100       0.02795500       0.40212600
    49  C          0.94123000       0.21074180       0.05893000
    50  C          0.94123000       0.78925820       0.55893000
    51  N          0.18263000       0.07142000       0.60773000
    52  N          0.18263000       0.92858000       0.10773000
    53  H          0.13940000      -0.00320000       0.63540000
    54  H          0.13940000       0.00320000       0.13540000
    55  H          0.11940000       0.10420000       0.49640000
    56  H          0.11940000       0.89580000      -0.00360000
    57  O         -0.00748000       0.30981130       0.01112000
    58  O         -0.00748000       0.69018870       0.51112000
    59  O          0.05112000       0.15736130       0.19822000
    60  O          0.05112000       0.84263870       0.69822000
    61  H          0.13110300       0.33556600       0.08497900
    62  H          0.13110300       0.66443400       0.58497900
