data_HEGQAL
_symmetry_space_group_name_H-M    'P1'
_symmetry_Int_Tables_number       1
loop_
_symmetry_equiv_pos_site_id
_symmetry_equiv_pos_as_xyz
1 x,y,z
_cell_length_a                   6.18451
_cell_length_b                   7.23172
_cell_length_c                   15.50392
_cell_angle_alpha                94.2321
_cell_angle_beta                 99.8681
_cell_angle_gamma                90.5121
loop_
_atom_site_label
_atom_site_type_symbol
_atom_site_fract_x
_atom_site_fract_y
_atom_site_fract_z
     1  S          0.70292000       0.24512000       0.12689800
     2  S          0.29708000       0.75488000       0.87310200
     3  O          0.60666000       0.05815000       0.11132000
     4  O          0.39334000       0.94185000       0.88868000
     5  O          0.93846000       0.25005000       0.12702000
     6  O          0.06154000       0.74995000       0.87298000
     7  O          0.58666000       0.37405000       0.06852000
     8  O          0.41334000       0.62595000       0.93148000
     9  C          0.66559000       0.32647000       0.23383000
    10  C          0.33441000       0.67353000       0.76617000
    11  C          0.82861000       0.43108000       0.28874000
    12  C          0.17139000       0.56892000       0.71126000
    13  H          0.96291000       0.45758000       0.26974000
    14  H          0.03709000       0.54242000       0.73026000
    15  C          0.79481000       0.49718000       0.37174000
    16  C          0.20519000       0.50282000       0.62826000
    17  H          0.90541000       0.57028000       0.40974000
    18  H          0.09459000       0.42972000       0.59026000
    19  C          0.60021000       0.45588000       0.39864000
    20  C          0.39979000       0.54412000       0.60136000
    21  C          0.43391000       0.35188000       0.34344000
    22  C          0.56609000       0.64812000       0.65656000
    23  H          0.29891000       0.32718000       0.36214000
    24  H          0.70109000       0.67282000       0.63786000
    25  C          0.46809000       0.28558000       0.26134000
    26  C          0.53191000       0.71442000       0.73866000
    27  H          0.35759000       0.21218000       0.22354000
    28  H          0.64241000       0.78782000       0.77646000
    29  N          0.58439000       0.52717000       0.48693000
    30  N          0.41561000       0.47283000       0.51307000
    31  C          0.06729000       0.73833000       0.09103000
    32  C          0.93271000       0.26167000       0.90897000
    33  N          0.85588000       0.72744000       0.09333000
    34  N          0.14412000       0.27256000       0.90667000
    35  H          0.77878000       0.82904000       0.09413000
    36  H          0.22122000       0.17096000       0.90587000
    37  H          0.79168000       0.61864000       0.09403000
    38  H          0.20832000       0.38136000       0.90597000
    39  N          0.16407000       0.90054000       0.09003000
    40  N          0.83593000       0.09946000       0.90997000
    41  H          0.08737000       0.00246000       0.09083000
    42  H          0.91263000      -0.00246000       0.90917000
    43  H          0.30547000       0.90724000       0.08853000
    44  H          0.69453000       0.09276000       0.91147000
    45  N          0.18068000       0.58204000       0.09223000
    46  N          0.81932000       0.41796000       0.90777000
    47  H          0.32288000       0.58644000       0.09223000
    48  H          0.67712000       0.41356000       0.90777000
    49  H          0.11308000       0.47474000       0.09293000
    50  H          0.88692000       0.52526000       0.90707000
    51  Br         0.21592150       0.85958890       0.32915500
    52  Br         0.78407850       0.14041110       0.67084500
    53  C          0.09041200       0.94151000       0.42814000
    54  C          0.90958800       0.05849000       0.57186000
    55  C          0.87841300       0.00421000       0.41755000
    56  C          0.12158700      -0.00421000       0.58245000
    57  H          0.79521300       0.00771000       0.36025000
    58  H          0.20478700      -0.00771000       0.63975000
    59  C          0.21341200       0.93811000       0.51065000
    60  C          0.78658800       0.06189000       0.48935000
    61  H          0.36021200       0.89661000       0.51805000
    62  H          0.63978800       0.10339000       0.48195000
