data_HEGTUL
_symmetry_space_group_name_H-M    'P1'
_symmetry_Int_Tables_number       1
loop_
_symmetry_equiv_pos_site_id
_symmetry_equiv_pos_as_xyz
1 x,y,z
_cell_length_a                   10.22357
_cell_length_b                   10.36697
_cell_length_c                   11.60509
_cell_angle_alpha                70.1797
_cell_angle_beta                 65.4248
_cell_angle_gamma                63.3027
loop_
_atom_site_label
_atom_site_type_symbol
_atom_site_fract_x
_atom_site_fract_y
_atom_site_fract_z
     1  Cl         0.64698110       0.73746110       0.16251110
     2  Cl         0.35301890       0.26253890       0.83748890
     3  Cl         0.18946120       0.19431100       0.19470100
     4  Cl         0.81053880       0.80568900       0.80529900
     5  Cl         0.77508110       0.34035110       0.28003900
     6  Cl         0.22491890       0.65964890       0.71996100
     7  Cl         0.99619100       0.83873900      -0.00228900
     8  Cl         0.00380900       0.16126100       0.00228900
     9  Cl         0.97375130       0.55382120       0.29109900
    10  Cl         0.02624870       0.44617880       0.70890100
    11  Cl         0.32988100       0.50450100       0.01751900
    12  Cl         0.67011900       0.49549900       0.98248100
    13  B          0.82975000       0.61654000       0.07864000
    14  B          0.17025000       0.38346000       0.92136000
    15  B          0.09375000       0.35144000       0.09334000
    16  B          0.90625000       0.64856000       0.90666000
    17  B          0.99675000       0.66514000      -0.00024000
    18  B          0.00325000       0.33486000       0.00024000
    19  B          0.16054000       0.50114000       0.00904000
    20  B          0.83946000       0.49886000      -0.00904000
    21  B          0.88985000       0.42344000       0.13604000
    22  B          0.11015000       0.57656000       0.86396000
    23  B          0.98725000       0.52564000       0.14114000
    24  B          0.01275000       0.47436000       0.85886000
    25  N          0.56104000       0.08724000       0.24853000
    26  N          0.43896000       0.91276000       0.75147000
    27  H          0.49860000       0.04150000       0.28440000
    28  H          0.50140000       0.95850000       0.71560000
    29  C          0.47365000       0.22394000       0.30244000
    30  C          0.52635000       0.77606000       0.69756000
    31  H          0.45860000       0.19980000       0.39520000
    32  H          0.54140000       0.80020000       0.60480000
    33  H          0.37300000       0.27190000       0.28790000
    34  H          0.62700000       0.72810000       0.71210000
    35  H          0.53140000       0.29040000       0.25970000
    36  H          0.46860000       0.70960000       0.74030000
    37  C          0.70385000      -0.00195000       0.28614000
    38  C          0.29615000       0.00195000       0.71386000
    39  H          0.75310000       0.90410000       0.25680000
    40  H          0.24690000       0.09590000       0.74320000
    41  H          0.67720000       0.98000000       0.38020000
    42  H          0.32280000       0.02000000       0.61980000
    43  H          0.77490000       0.05170000       0.24610000
    44  H          0.22510000       0.94830000       0.75390000
    45  C          0.59855000       0.11994000       0.10644000
    46  C          0.40145000       0.88006000       0.89356000
    47  H          0.66140000       0.18170000       0.06810000
    48  H          0.33860000       0.81830000       0.93190000
    49  H          0.50290000       0.17190000       0.08370000
    50  H          0.49710000       0.82810000       0.91630000
    51  H          0.65600000       0.02790000       0.07340000
    52  H          0.34400000       0.97210000       0.92660000
    53  N          0.20824000       0.75764000       0.35813000
    54  N          0.79176000       0.24236000       0.64187000
    55  H          0.24850000       0.79750000       0.36940000
    56  H          0.75150000       0.20250000       0.63060000
    57  C          0.04465000       0.80596000       0.43875000
    58  C          0.95535000       0.19404000       0.56125000
    59  H          0.99650000       0.91280000       0.41540000
    60  H          0.00350000       0.08720000       0.58460000
    61  H          0.03830000       0.77890000       0.52990000
    62  H          0.96170000       0.22110000       0.47010000
    63  H          0.99050000       0.75800000       0.42420000
    64  H          0.00950000       0.24200000       0.57580000
    65  C          0.22626000       0.80435000       0.21834000
    66  C          0.77374000       0.19565000       0.78166000
    67  H          0.17830000       0.75670000       0.19590000
    68  H          0.82170000       0.24330000       0.80410000
    69  H          0.33610000       0.77570000       0.16870000
    70  H          0.66390000       0.22430000       0.83130000
    71  H          0.17610000       0.91120000       0.19800000
    72  H          0.82390000       0.08880000       0.80200000
    73  C          0.28886000       0.59755000       0.39195000
    74  C          0.71114000       0.40245000       0.60805000
    75  H          0.27520000       0.56990000       0.48460000
    76  H          0.72480000       0.43010000       0.51540000
    77  H          0.39890000       0.57180000       0.34340000
    78  H          0.60110000       0.42820000       0.65660000
    79  H          0.24570000       0.54470000       0.37020000
    80  H          0.75430000       0.45530000       0.62980000
    81  Cl         0.35014110       0.91391110       0.42327900
    82  Cl         0.64985890       0.08608890       0.57672100
