data_HEGZUS
_symmetry_space_group_name_H-M    'P1'
_symmetry_Int_Tables_number       1
loop_
_symmetry_equiv_pos_site_id
_symmetry_equiv_pos_as_xyz
1 x,y,z
_cell_length_a                   5.93663
_cell_length_b                   14.78758
_cell_length_c                   15.57246
_cell_angle_alpha                94.5604
_cell_angle_beta                 99.3274
_cell_angle_gamma                99.2084
loop_
_atom_site_label
_atom_site_type_symbol
_atom_site_fract_x
_atom_site_fract_y
_atom_site_fract_z
     1  O          0.24172000       0.89169900       0.05684900
     2  O          0.75828000       0.10830100       0.94315100
     3  H          0.15818600       0.87628000       0.09214600
     4  H          0.84181400       0.12372000       0.90785400
     5  O          0.31302000       0.57225900       0.04531900
     6  O          0.68698000       0.42774100       0.95468100
     7  H          0.21658800       0.57174300       0.07754400
     8  H          0.78341200       0.42825700       0.92245600
     9  C          0.34853000       0.82055120       0.03437110
    10  C          0.65147000       0.17944880       0.96562890
    11  C          0.38403000       0.66042130       0.02853110
    12  C          0.61597000       0.33957870       0.97146890
    13  C          0.26933000       0.73092120       0.05057110
    14  C          0.73067000       0.26907880       0.94942890
    15  H          0.13862600       0.71830200       0.07636200
    16  H          0.86137400       0.28169800       0.92363800
    17  C          0.57663000       0.67847140       0.98819890
    18  C          0.42337000       0.32152860       0.01180110
    19  H          0.65357300       0.63131300       0.97258200
    20  H          0.34642700       0.36868700       0.02741800
    21  C          0.54123000       0.83930140      -0.00600110
    22  C          0.45877000       0.16069860       0.00600110
    23  H          0.59448200       0.89887600       0.98224100
    24  H          0.40551800       0.10112400       0.01775900
    25  C          0.65163000       0.76775150       0.97177880
    26  C          0.34837000       0.23224850       0.02822120
    27  H          0.78042600       0.78003800       0.94489700
    28  H          0.21957400       0.21996200       0.05510300
    29  N          0.04923000       0.84031110       0.20157100
    30  N          0.95077000       0.15968890       0.79842900
    31  N          0.42873000       0.85953110       0.49881100
    32  N          0.57127000       0.14046890       0.50118900
    33  N          0.26033000       0.98059120       0.73455120
    34  N          0.73967000       0.01940880       0.26544880
    35  N          0.64733000       0.89369120       0.55169100
    36  N          0.35267000       0.10630880       0.44830900
    37  C          0.21423000       0.85197120       0.35418110
    38  C          0.78577000       0.14802880       0.64581890
    39  C          0.85663000       0.91276120       0.69769110
    40  C          0.14337000       0.08723880       0.30230890
    41  C          0.22733000       0.86607130       0.26847110
    42  C          0.77267000       0.13392870       0.73152890
    43  H          0.36779700       0.89512700       0.25637300
    44  H          0.63220300       0.10487300       0.74362700
    45  C          0.64853000       0.88236120       0.63132120
    46  C          0.35147000       0.11763880       0.36867880
    47  H          0.51342000       0.85393700       0.64806100
    48  H          0.48658000       0.14606300       0.35193900
    49  C          0.84823000       0.90585130       0.78494120
    50  C          0.15177000       0.09414870       0.21505880
    51  H          0.71079400       0.88071000       0.80213900
    52  H          0.28920600       0.11929000       0.19786100
    53  C          0.42163000       0.88100130       0.42151120
    54  C          0.57837000       0.11899870       0.57848880
    55  H          0.55181000       0.91618700       0.40707600
    56  H          0.44819000       0.08381300       0.59292400
    57  C          0.00313000       0.80988130       0.37198120
    58  C         -0.00313000       0.19011870       0.62801880
    59  H         -0.01406200       0.80069100       0.42912500
    60  H          0.01406200       0.19930900       0.57087500
    61  C          0.81907000       0.78186140       0.30376130
    62  C          0.18093000       0.21813860       0.69623870
    63  H          0.67682300       0.75257000       0.31409800
    64  H          0.32317700       0.24743000       0.68590200
    65  C          0.06753000       0.95056140       0.67621130
    66  C          0.93247000       0.04943860       0.32378870
    67  H          0.07408300       0.95512200       0.61742200
    68  H          0.92591700       0.04487800       0.38257800
    69  C          0.84917000       0.79787140       0.22033130
    70  C          0.15083000       0.20212860       0.77966870
    71  H          0.72456200       0.77827800       0.17466400
    72  H          0.27543800       0.22172200       0.82533600
    73  C          0.04734000       0.93689140       0.84661130
    74  C          0.95266000       0.06310860       0.15338870
    75  H          0.04596200       0.93337000       0.90589000
    76  H          0.95403800       0.06663000       0.09411000
    77  C          0.24624000       0.97289140       0.81834140
    78  C          0.75376000       0.02710860       0.18165860
    79  H          0.37943700      -0.00682400       0.86009900
    80  H          0.62056300       0.00682400       0.13990100
    81  N          0.03793000       0.56817110       0.17195100
    82  N          0.96207000       0.43182890       0.82804900
    83  N          0.39793000       0.61367120       0.43064100
    84  N          0.60207000       0.38632880       0.56935900
    85  N          0.49253000       0.62008110       0.52017100
    86  N          0.50747000       0.37991890       0.47982900
    87  N          0.21923000       0.72607130       0.71277120
    88  N          0.78077000       0.27392870       0.28722880
    89  C          0.04833000       0.56474120       0.32600110
    90  C          0.95167000       0.43525880       0.67399890
    91  C          0.84313000       0.67328120       0.62356120
    92  C          0.15687000       0.32671880       0.37643880
    93  C          0.15063000       0.58474130       0.25376120
    94  C          0.84937000       0.41525870       0.74623880
    95  H          0.30674800       0.61122700       0.26353700
    96  H          0.69325200       0.38877300       0.73646300
    97  C          0.81377000       0.52717130       0.31040120
    98  C          0.18623000       0.47282870       0.68959880
    99  H          0.73772400       0.51281800       0.35657000
   100  H          0.26227600       0.48718200       0.64343000
   101  C          0.07743000       0.71009140       0.63540130
   102  C          0.92257000       0.28990860       0.36459870
   103  H          0.13980300       0.72459400       0.58612200
   104  H          0.86019700       0.27540600       0.41387800
   105  C          0.70503000       0.65861130       0.53613120
   106  C          0.29497000       0.34138870       0.46386880
   107  H          0.77456700       0.67813300       0.48983600
   108  H          0.22543300       0.32186700       0.51016400
   109  C          0.75153000       0.65294130       0.69728130
   110  C          0.24847000       0.34705870       0.30271870
   111  H          0.59445400       0.62939100       0.69239300
   112  H          0.40554600       0.37060900       0.30760700
   113  C          0.18193000       0.58000130       0.41467120
   114  C          0.81807000       0.41999870       0.58532880
   115  H          0.10732500       0.56472700       0.46100400
   116  H          0.89267500       0.43527300       0.53899600
   117  C          0.81157000       0.53197130       0.15848130
   118  C          0.18843000       0.46802870       0.84151870
   119  H          0.73018800       0.52031100       0.10132900
   120  H          0.26981200       0.47968900       0.89867100
   121  C          0.69587000       0.51153140       0.22541130
   122  C          0.30413000       0.48846860       0.77458870
   123  H          0.53824200       0.48718700       0.21362800
   124  H          0.46175800       0.51281300       0.78637200
   125  C          0.89294000       0.66762140       0.77745130
   126  C          0.10706000       0.33237860       0.22254870
   127  H          0.83472600       0.65336900       0.82763400
   128  H          0.16527400       0.34663100       0.17236600
   129  C          0.12484000       0.70419150       0.78209140
   130  C          0.87516000       0.29580850       0.21790860
   131  H          0.22027300       0.71407900       0.83676000
   132  H          0.77972700       0.28592100       0.16324000
