data_HEJLOA
_symmetry_space_group_name_H-M    'P1'
_symmetry_Int_Tables_number       1
loop_
_symmetry_equiv_pos_site_id
_symmetry_equiv_pos_as_xyz
1 x,y,z
_cell_length_a                   10.345417
_cell_length_b                   11.9832
_cell_length_c                   13.7432
_cell_angle_alpha                68.6284
_cell_angle_beta                 82.1624
_cell_angle_gamma                80.1163
loop_
_atom_site_label
_atom_site_type_symbol
_atom_site_fract_x
_atom_site_fract_y
_atom_site_fract_z
     1  Br         0.29076700       0.83918500       0.31472400
     2  Br         0.70923300       0.16081500       0.68527600
     3  S          0.07980100       0.30594100       0.39651800
     4  S          0.92019900       0.69405900       0.60348200
     5  Cl         0.21223120       0.44859120       0.85223200
     6  Cl         0.78776880       0.55140880       0.14776800
     7  F          0.89233000       0.15373000       0.01642000
     8  F          0.10767000       0.84627000       0.98358000
     9  F          0.06923000       0.04203000       0.07542000
    10  F          0.93077000       0.95797000       0.92458000
    11  F          0.88124000      -0.00513000       0.15272000
    12  F          0.11876000       0.00513000       0.84728000
    13  N          0.04173000       0.25823000       0.30562000
    14  N          0.95827000       0.74177000       0.69438000
    15  N          0.53213000       0.32333000       0.28772000
    16  N          0.46787000       0.67667000       0.71228000
    17  O          0.82652000       0.20743000       0.19421180
    18  O          0.17348000       0.79257000       0.80578820
    19  O          0.51013000       0.37543000       0.11162000
    20  O          0.48987000       0.62457000       0.88838000
    21  O          0.52753000       0.33602000       0.45188180
    22  O          0.47247000       0.66398000       0.54811820
    23  O          0.04273000       0.21813000       0.49332000
    24  O          0.95727000       0.78187000       0.50668000
    25  O          0.21213000       0.32973000       0.37372000
    26  O          0.78787000       0.67027000       0.62628000
    27  C          0.08123000       0.30984000       0.19623000
    28  C          0.91877000       0.69016000       0.80377000
    29  C          0.15334000       0.40564000       0.15493000
    30  C          0.84666000       0.59436000       0.84507000
    31  H          0.17610000       0.44100000       0.19910000
    32  H          0.82390000       0.55900000       0.80090000
    33  C          0.19234000       0.44994000       0.04933000
    34  C          0.80766000       0.55006000       0.95067000
    35  H          0.24120000       0.51440000       0.02240000
    36  H          0.75880000       0.48560000       0.97760000
    37  C          0.15834000       0.39834000       0.98477000
    38  C          0.84166000       0.60166000       0.01523000
    39  C          0.08454000       0.30534000       0.02223000
    40  C          0.91546000       0.69466000       0.97777000
    41  H          0.06130000       0.27230000       0.97650000
    42  H          0.93870000       0.72770000       0.02350000
    43  C          0.04393000       0.25953000       0.12803000
    44  C          0.95607000       0.74047000       0.87197000
    45  C          0.95864000       0.15834000       0.17423000
    46  C          0.04136000       0.84166000       0.82577000
    47  C          0.00154000       0.07833000       0.28063000
    48  C         -0.00154000       0.92167000       0.71937000
    49  H          0.09630000       0.05690000       0.28020000
    50  H          0.90370000       0.94310000       0.71980000
    51  H          0.95910000       0.00550000       0.30900000
    52  H          0.04090000      -0.00550000       0.69100000
    53  C          0.95074000       0.16633000       0.33813000
    54  C          0.04926000       0.83367000       0.66187000
    55  H          0.94390000       0.12490000       0.41420000
    56  H          0.05610000       0.87510000       0.58580000
    57  C          0.81563000       0.21873000       0.29653000
    58  C          0.18437000       0.78127000       0.70347000
    59  H          0.79680000       0.30420000       0.28920000
    60  H          0.20320000       0.69580000       0.71080000
    61  C          0.70403000       0.15223000       0.36233000
    62  C          0.29597000       0.84777000       0.63767000
    63  H          0.69090000       0.16440000       0.42910000
    64  H          0.30910000       0.83560000       0.57090000
    65  H          0.72830000       0.06630000       0.37600000
    66  H          0.27170000       0.93370000       0.62400000
    67  C          0.57524000       0.19373000       0.30973000
    68  C          0.42476000       0.80627000       0.69027000
    69  H          0.59270000       0.18230000       0.24170000
    70  H          0.40730000       0.81770000       0.75830000
    71  C          0.46644000       0.12024000       0.36934000
    72  C          0.53356000       0.87976000       0.63066000
    73  H          0.44980000       0.12480000       0.43830000
    74  H          0.55020000       0.87520000       0.56170000
    75  H          0.49220000       0.03740000       0.37470000
    76  H          0.50780000       0.96260000       0.62530000
    77  H          0.38780000       0.15150000       0.33290000
    78  H          0.61220000       0.84850000       0.66710000
    79  C          0.94965000       0.08745000       0.10394000
    80  C          0.05035000       0.91255000       0.89606000
    81  C          0.49684000       0.40274000       0.18923000
    82  C          0.50316000       0.59726000       0.81077000
    83  C          0.50633000       0.38113000       0.36123000
    84  C          0.49367000       0.61887000       0.63877000
    85  C          0.45003000       0.50733000       0.30313000
    86  C          0.54997000       0.49267000       0.69687000
    87  C          0.44394000       0.52014000       0.20063000
    88  C          0.55606000       0.47986000       0.79937000
    89  C          0.39225000       0.62764000       0.12953000
    90  C          0.60775000       0.37236000       0.87047000
    91  H          0.38870000       0.63670000       0.05970000
    92  H          0.61130000       0.36330000       0.94030000
    93  C          0.34535000       0.72184000       0.16583000
    94  C          0.65465000       0.27816000       0.83417000
    95  H          0.30650000       0.79490000       0.12070000
    96  H          0.69350000       0.20510000       0.87930000
    97  C          0.35584000       0.70794000       0.26773000
    98  C          0.64416000       0.29206000       0.73227000
    99  C          0.40804000       0.60213000       0.33953000
   100  C          0.59196000       0.39787000       0.66047000
   101  H          0.41470000       0.59430000       0.40850000
   102  H          0.58530000       0.40570000       0.59150000
   103  C          0.97904000       0.44274000       0.38383000
   104  C          0.02096000       0.55726000       0.61617000
   105  C          0.84744000       0.44174000       0.41983000
   106  C          0.15256000       0.55826000       0.58017000
   107  H          0.81320000       0.36890000       0.45260000
   108  H          0.18680000       0.63110000       0.54740000
   109  C          0.76754000       0.55024000       0.40633000
   110  C          0.23246000       0.44976000       0.59367000
   111  H          0.67890000       0.54940000       0.42980000
   112  H          0.32110000       0.45060000       0.57020000
   113  C          0.81504000       0.65944000       0.35923000
   114  C          0.18496000       0.34056000       0.64077000
   115  C          0.94784000       0.65834000       0.32704000
   116  C          0.05216000       0.34166000       0.67296000
   117  H          0.98280000       0.73090000       0.29700000
   118  H          0.01720000       0.26910000       0.70300000
   119  C          0.02874000       0.55114000       0.33893000
   120  C          0.97126000       0.44886000       0.66107000
   121  H          0.11760000       0.55200000       0.31640000
   122  H          0.88240000       0.44800000       0.68360000
   123  C          0.72505000       0.77614000       0.34484000
   124  C          0.27495000       0.22386000       0.65516000
   125  H          0.68000000       0.79790000       0.28250000
   126  H          0.32000000       0.20210000       0.71750000
   127  H          0.77580000       0.83870000       0.33830000
   128  H          0.22420000       0.16130000       0.66170000
   129  H          0.66180000       0.76610000       0.40440000
   130  H          0.33820000       0.23390000       0.59560000
   131  C          0.58551300       0.88491200       0.92281000
   132  C          0.41448700       0.11508800       0.07719000
   133  H          0.65000000       0.91180000       0.86400000
   134  H          0.35000000       0.08820000       0.13600000
   135  H          0.58050000       0.79920000       0.94340000
   136  H          0.41950000       0.20080000       0.05660000
   137  C          0.45731400       0.96151200       0.91161000
   138  C          0.54268600       0.03848800       0.08839000
   139  H          0.39230000       0.90580000       0.93340000
   140  H          0.60770000       0.09420000       0.06660000
   141  H          0.45230000       0.00300000       0.83680000
   142  H          0.54770000      -0.00300000       0.16320000
   143  C          0.40181200       0.06261200       0.96371000
   144  C          0.59818800       0.93738800       0.03629000
   145  H          0.30800000       0.05880000       0.96980000
   146  H          0.69200000       0.94120000       0.03020000
   147  H          0.41450000       0.13580000       0.90440000
   148  H          0.58550000       0.86420000       0.09560000
