data_HEKZEE
_symmetry_space_group_name_H-M    'P1'
_symmetry_Int_Tables_number       1
loop_
_symmetry_equiv_pos_site_id
_symmetry_equiv_pos_as_xyz
1 x,y,z
_cell_length_a                   9.49333
_cell_length_b                   8.17922
_cell_length_c                   13.46454
_cell_angle_alpha                90.0
_cell_angle_beta                 109.1562
_cell_angle_gamma                90.0
loop_
_atom_site_label
_atom_site_type_symbol
_atom_site_fract_x
_atom_site_fract_y
_atom_site_fract_z
     1  I          0.78163300       0.04151300       0.07078200
     2  I          0.21836700       0.54151300       0.42921800
     3  I          0.21836700       0.95848700       0.92921800
     4  I          0.78163300       0.45848700       0.57078200
     5  I          0.86351300       0.32142400       0.97557800
     6  I          0.13648700       0.82142400       0.52442200
     7  I          0.13648700       0.67857600       0.02442200
     8  I          0.86351300       0.17857600       0.47557800
     9  N          0.71974000       0.81066000       0.15403000
    10  N          0.28026000       0.31066000       0.34597000
    11  N          0.28026000       0.18934000       0.84597000
    12  N          0.71974000       0.68934000       0.65403000
    13  N          0.64634000       0.56476000       0.24463000
    14  N          0.35366000       0.06476000       0.25537000
    15  N          0.35366000       0.43524000       0.75537000
    16  N          0.64634000       0.93524000       0.74463000
    17  C          0.63555000       0.69075000       0.07393000
    18  C          0.36445000       0.19075000       0.42607000
    19  C          0.36445000       0.30925000       0.92607000
    20  C          0.63555000       0.80925000       0.57393000
    21  H          0.69870000       0.65060000       0.03350000
    22  H          0.30130000       0.15060000       0.46650000
    23  H          0.30130000       0.34940000       0.96650000
    24  H          0.69870000       0.84940000       0.53350000
    25  H          0.54610000       0.74360000       0.02430000
    26  H          0.45390000       0.24360000       0.47570000
    27  H          0.45390000       0.25640000       0.97570000
    28  H          0.54610000       0.75640000       0.52430000
    29  C          0.62445000       0.86685000       0.21553000
    30  C          0.37555000       0.36685000       0.28447000
    31  C          0.37555000       0.13315000       0.78447000
    32  C          0.62445000       0.63315000       0.71553000
    33  H          0.53150000       0.91630000       0.16790000
    34  H          0.46850000       0.41630000       0.33210000
    35  H          0.46850000       0.08370000       0.83210000
    36  H          0.53150000       0.58370000       0.66790000
    37  H          0.67780000       0.95060000       0.26730000
    38  H          0.32220000       0.45060000       0.23270000
    39  H          0.32220000       0.04940000       0.73270000
    40  H          0.67780000       0.54940000       0.76730000
    41  C          0.58795000       0.54595000       0.13013000
    42  C          0.41205000       0.04595000       0.36987000
    43  C          0.41205000       0.45405000       0.86987000
    44  C          0.58795000       0.95405000       0.63013000
    45  H          0.47770000       0.54000000       0.10700000
    46  H          0.52230000       0.04000000       0.39300000
    47  H          0.52230000       0.46000000       0.89300000
    48  H          0.47770000       0.96000000       0.60700000
    49  H          0.62530000       0.44250000       0.11000000
    50  H          0.37470000       0.94250000       0.39000000
    51  H          0.37470000       0.55750000       0.89000000
    52  H          0.62530000       0.05750000       0.61000000
    53  C          0.85655000       0.73044000       0.22553000
    54  C          0.14345000       0.23044000       0.27447000
    55  C          0.14345000       0.26956000       0.77447000
    56  C          0.85655000       0.76956000       0.72553000
    57  H          0.91240000       0.80810000       0.28080000
    58  H          0.08760000       0.30810000       0.21920000
    59  H          0.08760000       0.19190000       0.71920000
    60  H          0.91240000       0.69190000       0.78080000
    61  H          0.92210000       0.69660000       0.18520000
    62  H          0.07790000       0.19660000       0.31480000
    63  H          0.07790000       0.30340000       0.81480000
    64  H          0.92210000       0.80340000       0.68520000
    65  C          0.58666000       0.71685000       0.27314000
    66  C          0.41334000       0.21685000       0.22686000
    67  C          0.41334000       0.28315000       0.72686000
    68  C          0.58666000       0.78315000       0.77314000
    69  H          0.62910000       0.73370000       0.35010000
    70  H          0.37090000       0.23370000       0.14990000
    71  H          0.37090000       0.26630000       0.64990000
    72  H          0.62910000       0.76630000       0.85010000
    73  H          0.47700000       0.70740000       0.25460000
    74  H          0.52300000       0.20740000       0.24540000
    75  H          0.52300000       0.29260000       0.74540000
    76  H          0.47700000       0.79260000       0.75460000
    77  C          0.80985000       0.57854000       0.27654000
    78  C          0.19015000       0.07854000       0.22346000
    79  C          0.19015000       0.42146000       0.72346000
    80  C          0.80985000       0.92146000       0.77654000
    81  H          0.85110000       0.47870000       0.25500000
    82  H          0.14890000       0.97870000       0.24500000
    83  H          0.14890000       0.52130000       0.74500000
    84  H          0.85110000       0.02130000       0.75500000
    85  H          0.85160000       0.58760000       0.35400000
    86  H          0.14840000       0.08760000       0.14600000
    87  H          0.14840000       0.41240000       0.64600000
    88  H          0.85160000       0.91240000       0.85400000
