data_HELBOR
_symmetry_space_group_name_H-M    'P1'
_symmetry_Int_Tables_number       1
loop_
_symmetry_equiv_pos_site_id
_symmetry_equiv_pos_as_xyz
1 x,y,z
_cell_length_a                   7.26502
_cell_length_b                   7.76703
_cell_length_c                   22.45806
_cell_angle_alpha                80.3022
_cell_angle_beta                 89.1182
_cell_angle_gamma                88.2072
loop_
_atom_site_label
_atom_site_type_symbol
_atom_site_fract_x
_atom_site_fract_y
_atom_site_fract_z
     1  C          0.30637000       0.04046000       0.60942000
     2  C          0.69363000       0.95954000       0.39058000
     3  H          0.38230000       0.93100000       0.61560000
     4  H          0.61770000       0.06900000       0.38440000
     5  H          0.25190000       0.05550000       0.56870000
     6  H          0.74810000       0.94450000       0.43130000
     7  C          0.15218000       0.02907000       0.65753000
     8  C          0.84782000       0.97093000       0.34247000
     9  H          0.03080000       0.03100000       0.63790000
    10  H          0.96920000       0.96900000       0.36210000
    11  H          0.16600000       0.91780000       0.68620000
    12  H          0.83400000       0.08220000       0.31380000
    13  C          0.31297000       0.35516000       0.60172000
    14  C          0.68703000       0.64484000       0.39828000
    15  H          0.26800000       0.37300000       0.55960000
    16  H          0.73200000       0.62700000       0.44040000
    17  H          0.39000000       0.45480000       0.60620000
    18  H          0.61000000       0.54520000       0.39380000
    19  C          0.15008000       0.34757000       0.64533000
    20  C          0.84992000       0.65243000       0.35467000
    21  H          0.15030000       0.44910000       0.66660000
    22  H          0.84970000       0.55090000       0.33340000
    23  H          0.03370000       0.35270000       0.62250000
    24  H          0.96630000       0.64730000       0.37750000
    25  C          0.49827000       0.17057000       0.67602000
    26  C          0.50173000       0.82943000       0.32398000
    27  H          0.58220000       0.26670000       0.67880000
    28  H          0.41780000       0.73330000       0.32120000
    29  H          0.56960000       0.05870000       0.68510000
    30  H          0.43040000       0.94130000       0.31490000
    31  C          0.34147000       0.17249000       0.72202000
    32  C          0.65853000       0.82751000       0.27798000
    33  H          0.35050000       0.06590000       0.75310000
    34  H          0.64950000       0.93410000       0.24690000
    35  H          0.35090000       0.27530000       0.74230000
    36  H          0.64910000       0.72470000       0.25770000
    37  C          0.00047000       0.18687000       0.73382000
    38  C         -0.00047000       0.81313000       0.26618000
    39  H          0.88600000       0.20010000       0.70990000
    40  H          0.11400000       0.79990000       0.29010000
    41  H          0.01020000       0.29340000       0.75220000
    42  H         -0.01020000       0.70660000       0.24780000
    43  C          0.97953000       0.03177000       0.78482000
    44  C          0.02047000       0.96823000       0.21518000
    45  H          0.08540000       0.02340000       0.81250000
    46  H          0.91460000       0.97660000       0.18750000
    47  H          0.97620000       0.92180000       0.76800000
    48  H          0.02380000       0.07820000       0.23200000
    49  C          0.80013000       0.05927000       0.81882000
    50  C          0.19987000       0.94073000       0.18118000
    51  H          0.80810000       0.16870000       0.83560000
    52  H          0.19190000       0.83130000       0.16440000
    53  H          0.69800000       0.07530000       0.78960000
    54  H          0.30200000       0.92470000       0.21040000
    55  C          0.75293000       0.91323000       0.86972000
    56  C          0.24707000       0.08677000       0.13028000
    57  H          0.84340000       0.90900000       0.90250000
    58  H          0.15660000       0.09100000       0.09750000
    59  H          0.76220000       0.80050000       0.85480000
    60  H          0.23780000       0.19950000       0.14520000
    61  C          0.56083000       0.93743000       0.89472000
    62  C          0.43917000       0.06257000       0.10528000
    63  H          0.47230000       0.94450000       0.86130000
    64  H          0.52770000       0.05550000       0.13870000
    65  H          0.55350000       0.05080000       0.90940000
    66  H          0.44650000       0.94920000       0.09060000
    67  C          0.50123000       0.79513000       0.94582000
    68  C          0.49877000       0.20487000       0.05418000
    69  H          0.58910000       0.78810000       0.97940000
    70  H          0.41090000       0.21190000       0.02060000
    71  H          0.50770000       0.68170000       0.93120000
    72  H          0.49230000       0.31830000       0.06880000
    73  C          0.30783000       0.82453000       0.96952000
    74  C          0.69217000       0.17547000       0.03048000
    75  H          0.22040000       0.83200000       0.93580000
    76  H          0.77960000       0.16800000       0.06420000
    77  H          0.30180000       0.93830000       0.98390000
    78  H          0.69820000       0.06170000       0.01610000
    79  C          0.24623000       0.68253000       0.02082000
    80  C          0.75377000       0.31747000       0.97918000
    81  H          0.25260000       0.56890000       0.00640000
    82  H          0.74740000       0.43110000       0.99360000
    83  H          0.33380000       0.67530000       0.05460000
    84  H          0.66620000       0.32470000       0.94540000
    85  C          0.05313000       0.71133000       0.04462000
    86  C          0.94687000       0.28867000       0.95538000
    87  H          0.96550000       0.72010000       0.01080000
    88  H          0.03450000       0.27990000       0.98920000
    89  H          0.04700000       0.82410000       0.05970000
    90  H          0.95300000       0.17590000       0.94030000
    91  C         -0.00648000       0.56713000       0.09492000
    92  C          0.00648000       0.43287000       0.90508000
    93  H          0.08300000       0.55680000       0.12820000
    94  H          0.91700000       0.44320000       0.87180000
    95  H         -0.00260000       0.45510000       0.07950000
    96  H          0.00260000       0.54490000       0.92050000
    97  C          0.79992000       0.59713000       0.12012000
    98  C          0.20008000       0.40287000       0.87988000
    99  H          0.79690000       0.70720000       0.13700000
   100  H          0.20310000       0.29280000       0.86300000
   101  H          0.71060000       0.61090000       0.08670000
   102  H          0.28940000       0.38910000       0.91330000
   103  C          0.74171000       0.44812000       0.16923000
   104  C          0.25829000       0.55188000       0.83077000
   105  H          0.75040000       0.33800000       0.15340000
   106  H          0.24960000       0.66200000       0.84660000
   107  H          0.61440000       0.46970000       0.18170000
   108  H          0.38560000       0.53030000       0.81830000
   109  H          0.82300000       0.44110000       0.20400000
   110  H          0.17700000       0.55890000       0.79600000
   111  N          0.42355000       0.19135000       0.61414170
   112  N          0.57645000       0.80865000       0.38585830
   113  N          0.16125000       0.17955000       0.69090170
   114  N          0.83875000       0.82045000       0.30909830
   115  F          0.71656000       0.81556000       0.65377140
   116  F          0.28344000       0.18444000       0.34622860
   117  F          0.74396000       0.52456000       0.65397130
   118  F          0.25604000       0.47544000       0.34602870
   119  F          0.47706000       0.64096000       0.68490140
   120  F          0.52294000       0.35904000       0.31509860
   121  F          0.66095000       0.47216000       0.75257130
   122  F          0.33905000       0.52784000       0.24742870
   123  F          0.63085000       0.76566000       0.75213140
   124  F          0.36915000       0.23434000       0.24786860
   125  F          0.89996000       0.64676000       0.72143160
   126  F          0.10004000       0.35324000       0.27856840
   127  P          0.68836820       0.64427830       0.70334600
   128  P          0.31163180       0.35572170       0.29665400
   129  I          0.69132400       0.21875400       0.53920814
   130  I          0.30867600       0.78124600       0.46079186
   131  I         -0.01129600       0.26127400       0.46003914
   132  I          0.01129600       0.73872600       0.53996086
