data_HELBIL
_symmetry_space_group_name_H-M    'P1'
_symmetry_Int_Tables_number       1
loop_
_symmetry_equiv_pos_site_id
_symmetry_equiv_pos_as_xyz
1 x,y,z
_cell_length_a                   7.28004
_cell_length_b                   7.77505
_cell_length_c                   20.867011
_cell_angle_alpha                99.2973
_cell_angle_beta                 95.3624
_cell_angle_gamma                91.8014
loop_
_atom_site_label
_atom_site_type_symbol
_atom_site_fract_x
_atom_site_fract_y
_atom_site_fract_z
     1  C          0.27911000       0.85229000       0.38264000
     2  C          0.72089000       0.14771000       0.61736000
     3  H          0.35250000       0.95670000       0.37630000
     4  H          0.64750000       0.04330000       0.62370000
     5  H          0.23680000       0.87480000       0.42680000
     6  H          0.76320000       0.12520000       0.57320000
     7  C          0.11041300       0.81958900       0.33104000
     8  C          0.88958700       0.18041100       0.66896000
     9  H         -0.00470000       0.83710000       0.35250000
    10  H          0.00470000       0.16290000       0.64750000
    11  H          0.11650000       0.90310000       0.30000000
    12  H          0.88350000       0.09690000       0.70000000
    13  C          0.45021000       0.66149000       0.31044000
    14  C          0.54979000       0.33851000       0.68956000
    15  H          0.53420000       0.56340000       0.30750000
    16  H          0.46580000       0.43660000       0.69250000
    17  H          0.51810000       0.76460000       0.30040000
    18  H          0.48190000       0.23540000       0.69960000
    19  C          0.28081100       0.61318600       0.26004000
    20  C          0.71918900       0.38681400       0.73996000
    21  H          0.28050000       0.68900000       0.22620000
    22  H          0.71950000       0.31100000       0.77380000
    23  H          0.28470000       0.49040000       0.23840000
    24  H          0.71530000       0.50960000       0.76160000
    25  C          0.28621000       0.54751000       0.39054000
    26  C          0.71379000       0.45249000       0.60946000
    27  H          0.25420000       0.57030000       0.43610000
    28  H          0.74580000       0.42970000       0.56390000
    29  H          0.36140000       0.44330000       0.38540000
    30  H          0.63860000       0.55670000       0.61460000
    31  C          0.11121300       0.51308800       0.34445000
    32  C          0.88878700       0.48691200       0.65555000
    33  H          0.00220000       0.53020000       0.36940000
    34  H         -0.00220000       0.46980000       0.63060000
    35  H          0.10500000       0.39100000       0.32140000
    36  H          0.89500000       0.60900000       0.67860000
    37  C          0.93608900       0.58859000       0.24784000
    38  C          0.06391100       0.41141000       0.75216000
    39  H          0.94120000       0.46470000       0.22760000
    40  H          0.05880000       0.53530000       0.77240000
    41  H          0.82770000       0.59780000       0.27320000
    42  H          0.17230000       0.40220000       0.72680000
    43  C          0.90388900       0.69639000       0.19314000
    44  C          0.09611100       0.30361000       0.80686000
    45  H          0.00190000       0.67810000       0.16320000
    46  H         -0.00190000       0.32190000       0.83680000
    47  H          0.90500000       0.82210000       0.21150000
    48  H          0.09500000       0.17790000       0.78850000
    49  C          0.71508900       0.63519000       0.15664000
    50  C          0.28491100       0.36481000       0.84336000
    51  H          0.62100000       0.64730000       0.18810000
    52  H          0.37900000       0.35270000       0.81190000
    53  H          0.71820000       0.50990000       0.13820000
    54  H          0.28180000       0.49010000       0.86180000
    55  C          0.65558900       0.73538900       0.10114000
    56  C          0.34441100       0.26461100       0.89886000
    57  H          0.66730000       0.86230000       0.11780000
    58  H          0.33270000       0.13770000       0.88220000
    59  H          0.73820000       0.70990000       0.06610000
    60  H          0.26180000       0.29010000       0.93390000
    61  C          0.45598900       0.68468900       0.07324000
    62  C          0.54401100       0.31531100       0.92676000
    63  H          0.44600000       0.55760000       0.05690000
    64  H          0.55400000       0.44240000       0.94310000
    65  H          0.37510000       0.70850000       0.10890000
    66  H          0.62490000       0.29150000       0.89110000
    67  C          0.38518800       0.77938900       0.01824000
    68  C          0.61481200       0.22061100       0.98176000
    69  H          0.46400000       0.75440000       0.98190000
    70  H          0.53600000       0.24560000       0.01810000
    71  H          0.39510000       0.90670000       0.03410000
    72  H          0.60490000       0.09330000       0.96590000
    73  C          0.18408800       0.72529000       0.99236000
    74  C          0.81591200       0.27471000       0.00764000
    75  H          0.17480000       0.59840000       0.97570000
    76  H          0.82520000       0.40160000       0.02430000
    77  H          0.10570000       0.74780000       0.02890000
    78  H          0.89430000       0.25220000       0.97110000
    79  C          0.11068800       0.82308900       0.93796000
    80  C          0.88931200       0.17691100       0.06204000
    81  H          0.11800000       0.94980000       0.95500000
    82  H          0.88200000       0.05020000       0.04500000
    83  H          0.19060000       0.80240000       0.90190000
    84  H          0.80940000       0.19760000       0.09810000
    85  C          0.91098700       0.76728800       0.91106000
    86  C          0.08901300       0.23271200       0.08894000
    87  H          0.90460000       0.64130000       0.89290000
    88  H          0.09540000       0.35870000       0.10710000
    89  H          0.83190000       0.78420000       0.94750000
    90  H          0.16810000       0.21580000       0.05250000
    91  C          0.83478600       0.86828700       0.85835000
    92  C          0.16521400       0.13171300       0.14165000
    93  H          0.83780000      -0.00700000       0.87640000
    94  H          0.16220000       0.00700000       0.12360000
    95  H          0.70720000       0.82690000       0.84320000
    96  H          0.29280000       0.17310000       0.15680000
    97  H          0.91060000       0.84990000       0.82160000
    98  H          0.08940000       0.15010000       0.17840000
    99  N          0.39529000       0.70012000       0.37693000
   100  N          0.60471000       0.29988000       0.62307000
   101  N          0.10989000       0.63732000       0.29523000
   102  N          0.89011000       0.36268000       0.70477000
   103  F          0.83673000       0.14127000       0.25973000
   104  F          0.16327000       0.85873000       0.74027000
   105  F          0.55892000      -0.00646000       0.22772000
   106  F          0.44108000       0.00646000       0.77228000
   107  F          0.58823000       0.28506000       0.22702000
   108  F          0.41177000       0.71494000       0.77298000
   109  F          0.42733000       0.18197000       0.30133000
   110  F          0.57267000       0.81803000       0.69867000
   111  F          0.70163000       0.32776000       0.33312000
   112  F          0.29837000       0.67224000       0.66688000
   113  F          0.67473000       0.03746000       0.33293000
   114  F          0.32527000       0.96254000       0.66707000
   115  P          0.63137000       0.16083000       0.28017100
   116  P          0.36863000       0.83917000       0.71982900
   117  I          0.68113600       0.74358400       0.45784200
   118  I          0.31886400       0.25641600       0.54215800
   119  I         -0.00041300       0.77732400       0.54332200
   120  I          0.00041300       0.22267600       0.45667800
