data_HELBUX
_symmetry_space_group_name_H-M    'P1'
_symmetry_Int_Tables_number       1
loop_
_symmetry_equiv_pos_site_id
_symmetry_equiv_pos_as_xyz
1 x,y,z
_cell_length_a                   7.30002
_cell_length_b                   7.75903
_cell_length_c                   23.93609
_cell_angle_alpha                97.5932
_cell_angle_beta                 93.5122
_cell_angle_gamma                91.7932
loop_
_atom_site_label
_atom_site_type_symbol
_atom_site_fract_x
_atom_site_fract_y
_atom_site_fract_z
     1  N          0.94966000       0.29866000       0.10672000
     2  N          0.05034000       0.70134000       0.89328000
     3  N          0.70436000       0.30006000       0.17782000
     4  N          0.29564000       0.69994000       0.82218000
     5  C          0.83188000       0.44768000       0.10183000
     6  C          0.16812000       0.55232000       0.89817000
     7  H          0.76740000       0.43450000       0.06380000
     8  H          0.23260000       0.56550000       0.93620000
     9  H          0.90830000       0.55690000       0.10680000
    10  H          0.09170000       0.44310000       0.89320000
    11  C          0.69031000       0.45629000       0.14713000
    12  C          0.30969000       0.54371000       0.85287000
    13  H          0.71370000       0.56360000       0.17430000
    14  H          0.28630000       0.43640000       0.82570000
    15  H          0.56490000       0.45920000       0.12910000
    16  H          0.43510000       0.54080000       0.87090000
    17  C          0.83758000       0.13557000       0.09453000
    18  C          0.16242000       0.86443000       0.90547000
    19  H          0.91570000       0.03540000       0.09870000
    20  H          0.08430000       0.96460000       0.90130000
    21  H          0.78390000       0.12230000       0.05510000
    22  H          0.21610000       0.87770000       0.94490000
    23  C          0.68329000       0.13789000       0.13533000
    24  C          0.31671000       0.86211000       0.86467000
    25  H          0.56250000       0.13480000       0.11390000
    26  H          0.43750000       0.86520000       0.88610000
    27  H          0.68830000       0.03370000       0.15520000
    28  H          0.31170000       0.96630000       0.84480000
    29  C          0.03718000       0.31298000       0.16482000
    30  C          0.96282000       0.68702000       0.83518000
    31  H          0.11000000       0.42400000       0.17360000
    32  H          0.89000000       0.57600000       0.82640000
    33  H          0.12150000       0.21640000       0.16740000
    34  H          0.87850000       0.78360000       0.83260000
    35  C          0.89158000       0.30561000       0.20753000
    36  C          0.10842000       0.69439000       0.79247000
    37  H          0.90610000       0.20080000       0.22660000
    38  H          0.09390000       0.79920000       0.77340000
    39  H          0.90650000       0.40930000       0.23650000
    40  H          0.09350000       0.59070000       0.76350000
    41  C          0.55448000       0.28958000       0.21813000
    42  C          0.44552000       0.71042000       0.78187000
    43  H          0.56790000       0.18070000       0.23510000
    44  H          0.43210000       0.81930000       0.76490000
    45  H          0.43500000       0.27930000       0.19580000
    46  H          0.56500000       0.72070000       0.80420000
    47  C          0.54558000       0.43858000       0.26593000
    48  C          0.45442000       0.56142000       0.73407000
    49  H          0.53900000       0.55060000       0.25050000
    50  H          0.46100000       0.44940000       0.74950000
    51  H          0.65660000       0.44300000       0.29200000
    52  H          0.34340000       0.55700000       0.70800000
    53  C          0.37388000       0.40698000       0.29733000
    54  C          0.62612000       0.59302000       0.70267000
    55  H          0.26590000       0.39410000       0.26970000
    56  H          0.73410000       0.60590000       0.73030000
    57  H          0.38480000       0.29540000       0.31280000
    58  H          0.61520000       0.70460000       0.68720000
    59  C          0.33808000       0.54828000       0.34513000
    60  C          0.66192000       0.45172000       0.65487000
    61  H          0.34380000       0.66300000       0.33130000
    62  H          0.65620000       0.33700000       0.66870000
    63  H          0.43470000       0.54900000       0.37600000
    64  H          0.56530000       0.45100000       0.62400000
    65  C          0.14968000       0.51948000       0.36793000
    66  C          0.85032000       0.48052000       0.63207000
    67  H          0.05430000       0.51680000       0.33650000
    68  H          0.94570000       0.48320000       0.66350000
    69  H          0.14510000       0.40420000       0.38130000
    70  H          0.85490000       0.59580000       0.61870000
    71  C          0.10318000       0.65649000       0.41573000
    72  C          0.89682000       0.34351000       0.58427000
    73  H          0.10780000       0.77200000       0.40250000
    74  H          0.89220000       0.22800000       0.59750000
    75  H          0.19710000       0.65840000       0.44740000
    76  H          0.80290000       0.34160000       0.55260000
    77  C          0.91272000       0.62449000       0.43723000
    78  C          0.08728000       0.37551000       0.56277000
    79  H          0.81900000       0.62140000       0.40530000
    80  H          0.18100000       0.37860000       0.59470000
    81  H          0.90850000       0.50900000       0.45050000
    82  H          0.09150000       0.49100000       0.54950000
    83  C          0.86382000       0.76178000       0.48503000
    84  C          0.13618000       0.23822000       0.51497000
    85  H          0.86700000       0.87700000       0.47150000
    86  H          0.13300000       0.12300000       0.52850000
    87  H          0.95820000       0.76550000       0.51670000
    88  H          0.04180000       0.23450000       0.48330000
    89  C          0.67522000       0.72889000       0.50663000
    90  C          0.32478000       0.27111000       0.49337000
    91  H          0.67190000       0.61360000       0.52020000
    92  H          0.32810000       0.38640000       0.47980000
    93  H          0.58070000       0.72530000       0.47500000
    94  H          0.41930000       0.27470000       0.52500000
    95  C          0.62811000       0.86739000       0.55453000
    96  C          0.37189000       0.13261000       0.44547000
    97  H          0.63150000      -0.01770000       0.54080000
    98  H          0.36850000       0.01770000       0.45920000
    99  H          0.72350000       0.87100000       0.58600000
   100  H          0.27650000       0.12900000       0.41400000
   101  C          0.43972000       0.83618000       0.57703000
   102  C          0.56028000       0.16382000       0.42297000
   103  H          0.34460000       0.83100000       0.54550000
   104  H          0.65540000       0.16900000       0.45450000
   105  H          0.43700000       0.72190000       0.59120000
   106  H          0.56300000       0.27810000       0.40880000
   107  C          0.39312000       0.97648000       0.62433000
   108  C          0.60688000       0.02352000       0.37567000
   109  H          0.48950000      -0.01760000       0.65550000
   110  H          0.51050000       0.01760000       0.34450000
   111  H          0.39510000       0.09030000       0.60990000
   112  H          0.60490000       0.90970000       0.39010000
   113  C          0.20701000       0.94631000       0.64763000
   114  C          0.79299000       0.05369000       0.35237000
   115  H          0.11100000       0.93640000       0.61620000
   116  H          0.88900000       0.06360000       0.38380000
   117  H          0.20660000       0.83440000       0.66330000
   118  H          0.79340000       0.16560000       0.33670000
   119  C          0.15989000       0.08891000       0.69293000
   120  C          0.84011000       0.91109000       0.30707000
   121  H          0.25020000       0.09480000       0.72520000
   122  H          0.74980000       0.90520000       0.27480000
   123  H          0.03720000       0.06420000       0.70510000
   124  H          0.96280000       0.93580000       0.29490000
   125  H          0.16150000       0.20050000       0.67790000
   126  H          0.83850000       0.79950000       0.32210000
   127  P          0.23812000       0.83472000       0.18899700
   128  P          0.76188000       0.16528000       0.81100300
   129  F          0.28155000       0.96005000       0.14265150
   130  F          0.71845000       0.03995000       0.85734850
   131  F          0.45315000       0.83085000       0.20595190
   132  F          0.54685000       0.16915000       0.79404810
   133  F          0.22335000       0.00225000       0.23509160
   134  F          0.77665000      -0.00225000       0.76490840
   135  F          0.19385000       0.70915000       0.23475160
   136  F          0.80615000       0.29085000       0.76524840
   137  F          0.02205000       0.83945000       0.17222160
   138  F          0.97795000       0.16055000       0.82777840
   139  F          0.25265000       0.66845000       0.14288170
   140  F          0.74735000       0.33155000       0.85711830
   141  I          0.19959500       0.27775500       0.03680416
   142  I          0.80040500       0.72224500       0.96319584
   143  I          0.47806500       0.24285500       0.96314383
   144  I          0.52193500       0.75714500       0.03685617
