data_HELHIR
_symmetry_space_group_name_H-M    'P1'
_symmetry_Int_Tables_number       1
loop_
_symmetry_equiv_pos_site_id
_symmetry_equiv_pos_as_xyz
1 x,y,z
_cell_length_a                   8.23935
_cell_length_b                   8.44125
_cell_length_c                   12.71498
_cell_angle_alpha                81.2952
_cell_angle_beta                 82.5152
_cell_angle_gamma                80.4882
loop_
_atom_site_label
_atom_site_type_symbol
_atom_site_fract_x
_atom_site_fract_y
_atom_site_fract_z
     1  I          0.71786200       0.13971200       0.42920314
     2  I          0.28213800       0.86028800       0.57079686
     3  S          0.74080900       0.30990800       0.17858600
     4  S          0.25919100       0.69009200       0.82141400
     5  S          0.51218900       0.11885900       0.10877600
     6  S          0.48781100       0.88114100       0.89122400
     7  S          0.80571900       0.48381900       0.93115600
     8  S          0.19428100       0.51618100       0.06884400
     9  S          0.56668900       0.29876900       0.86687500
    10  S          0.43331100       0.70123100       0.13312500
    11  S          0.87224100       0.66900900       0.72003600
    12  S          0.12775900       0.33099100       0.27996400
    13  S          0.59175900       0.44951900       0.63932500
    14  S          0.40824100       0.55048100       0.36067500
    15  C          0.65304000       0.16683000       0.27372000
    16  C          0.34696000       0.83317000       0.72628000
    17  C          0.54894000       0.08103000       0.24322000
    18  C          0.45106000       0.91897000       0.75678000
    19  H          0.49840000       0.00470000       0.29130000
    20  H          0.50160000      -0.00470000       0.70870000
    21  C          0.64313000       0.26843000       0.07222000
    22  C          0.35687000       0.73157000       0.92778000
    23  C          0.66783000       0.34153000       0.97072000
    24  C          0.33217000       0.65847000       0.02928000
    25  C          0.76173000       0.52313000       0.79632000
    26  C          0.23827000       0.47687000       0.20368000
    27  C          0.65323000       0.43953000       0.76752000
    28  C          0.34677000       0.56047000       0.23248000
    29  C          0.79714000       0.68624000       0.59032000
    30  C          0.20286000       0.31376000       0.40968000
    31  H          0.69380000       0.76030000       0.58980000
    32  H          0.30620000       0.23970000       0.41020000
    33  H          0.87650000       0.73220000       0.53600000
    34  H          0.12350000       0.26780000       0.46400000
    35  C          0.76924000       0.52484000       0.56172000
    36  C          0.23076000       0.47516000       0.43828000
    37  H          0.86700000       0.44560000       0.57310000
    38  H          0.13300000       0.55440000       0.42690000
    39  H          0.75410000       0.53760000       0.48630000
    40  H          0.24590000       0.46240000       0.51370000
    41  N          0.83564000       0.07523000       0.65202000
    42  N          0.16436000       0.92477000       0.34798000
    43  N          0.22204000       0.33844000       0.70582000
    44  N          0.77796000       0.66156000       0.29418000
    45  C          0.91664000       0.10213000       0.71162000
    46  C          0.08336000       0.89787000       0.28838000
    47  C          0.01763000       0.13993000       0.78572000
    48  C          0.98237000       0.86007000       0.21428000
    49  C          0.13054000       0.25124000       0.74212000
    50  C          0.86946000       0.74876000       0.25788000
    51  C          0.00943000       0.07073000       0.89172000
    52  C         -0.00943000       0.92927000       0.10828000
    53  C          0.90193000       0.95107000       0.93152000
    54  C          0.09807000       0.04893000       0.06848000
    55  H          0.83790000       0.92020000       0.88530000
    56  H          0.16210000       0.07980000       0.11470000
    57  C          0.89293000       0.88367000       0.03462000
    58  C          0.10707000       0.11633000       0.96538000
    59  H          0.82300000       0.80670000       0.05870000
    60  H          0.17700000       0.19330000       0.94130000
