data_HELXEE
_symmetry_space_group_name_H-M    'P1'
_symmetry_Int_Tables_number       1
loop_
_symmetry_equiv_pos_site_id
_symmetry_equiv_pos_as_xyz
1 x,y,z
_cell_length_a                   10.1454
_cell_length_b                   18.4727
_cell_length_c                   9.4213
_cell_angle_alpha                90.0
_cell_angle_beta                 91.42319
_cell_angle_gamma                90.0
loop_
_atom_site_label
_atom_site_type_symbol
_atom_site_fract_x
_atom_site_fract_y
_atom_site_fract_z
     1  N          0.51651180       0.53982900       0.77636180
     2  N          0.48348820       0.03982900       0.72363820
     3  N          0.48348820       0.46017100       0.22363820
     4  N          0.51651180       0.96017100       0.27636180
     5  C          0.43912000       0.48388120       0.79412000
     6  C          0.56088000       0.98388120       0.70588000
     7  C          0.56088000       0.51611880       0.20588000
     8  C          0.43912000       0.01611880       0.29412000
     9  H          0.45610000       0.45570000       0.87690000
    10  H          0.54390000       0.95570000       0.62310000
    11  H          0.54390000       0.54430000       0.12310000
    12  H          0.45610000       0.04430000       0.37690000
    13  N          0.33813180       0.46140900       0.70914180
    14  N          0.66186820       0.96140900       0.79085820
    15  N          0.66186820       0.53859100       0.29085820
    16  N          0.33813180       0.03859100       0.20914180
    17  C          0.31502000       0.49941110       0.59012000
    18  C          0.68498000      -0.00058890       0.90988000
    19  C          0.68498000       0.50058890       0.40988000
    20  C          0.31502000       0.00058890       0.09012000
    21  C          0.37072000       0.60615110       0.43542000
    22  C          0.62928000       0.10615110       0.06458000
    23  C          0.62928000       0.39384890       0.56458000
    24  C          0.37072000       0.89384890       0.93542000
    25  H          0.30420000       0.59360000       0.36710000
    26  H          0.69580000       0.09360000       0.13290000
    27  H          0.69580000       0.40640000       0.63290000
    28  H          0.30420000       0.90640000       0.86710000
    29  C          0.44602000       0.66645110       0.41612000
    30  C          0.55398000       0.16645110       0.08388000
    31  C          0.55398000       0.33354890       0.58388000
    32  C          0.44602000       0.83354890       0.91612000
    33  C          0.54522000       0.68637110       0.51882000
    34  C          0.45478000       0.18637110       0.98118000
    35  C          0.45478000       0.31362890       0.48118000
    36  C          0.54522000       0.81362890       0.01882000
    37  C          0.56742000       0.64392110       0.63692000
    38  C          0.43258000       0.14392110       0.86308000
    39  C          0.43258000       0.35607890       0.36308000
    40  C          0.56742000       0.85607890       0.13692000
    41  H          0.63410000       0.65680000       0.70490000
    42  H          0.36590000       0.15680000       0.79510000
    43  H          0.36590000       0.34320000       0.29510000
    44  H          0.63410000       0.84320000       0.20490000
    45  C          0.49112000       0.58153110       0.65652000
    46  C          0.50888000       0.08153110       0.84348000
    47  C          0.50888000       0.41846890       0.34348000
    48  C          0.49112000       0.91846890       0.15652000
    49  C          0.39162000       0.56205110       0.55742000
    50  C          0.60838000       0.06205110       0.94258000
    51  C          0.60838000       0.43794890       0.44258000
    52  C          0.39162000       0.93794890       0.05742000
    53  H          0.20720000       0.50551200       0.41920000
    54  H          0.79280000       0.00551200       0.08080000
    55  H          0.79280000       0.49448800       0.58080000
    56  H          0.20720000      -0.00551200       0.91920000
    57  N          0.21595180       0.47807900       0.49875190
    58  N          0.78404820       0.97807900       0.00124810
    59  N          0.78404820       0.52192100       0.50124810
    60  N          0.21595180       0.02192100      -0.00124810
    61  C          0.12672000       0.41941110       0.50672000
    62  C          0.87328000       0.91941110      -0.00672000
    63  C          0.87328000       0.58058890       0.49328000
    64  C          0.12672000       0.08058890       0.00672000
    65  C          0.03532000       0.41364110       0.39352000
    66  C          0.96468000       0.91364110       0.10648000
    67  C          0.96468000       0.58635890       0.60648000
    68  C          0.03532000       0.08635890       0.89352000
    69  H          0.03560000       0.44870000       0.31980000
    70  H          0.96440000       0.94870000       0.18020000
    71  H          0.96440000       0.55130000       0.68020000
    72  H          0.03560000       0.05130000       0.81980000
    73  C          0.94388000       0.35748110       0.38692000
    74  C          0.05612000       0.85748110       0.11308000
    75  C          0.05612000       0.64251890       0.61308000
    76  C          0.94388000       0.14251890       0.88692000
    77  C          0.94298000       0.30668120       0.49702000
    78  C          0.05702000       0.80668120       0.00298000
    79  C          0.05702000       0.69331880       0.50298000
    80  C          0.94298000       0.19331880      -0.00298000
    81  H          0.88180000       0.26780000       0.49440000
    82  H          0.11820000       0.76780000       0.00560000
    83  H          0.11820000       0.73220000       0.50560000
    84  H          0.88180000       0.23220000      -0.00560000
    85  C          0.03222000       0.31368130       0.60943000
    86  C          0.96778000       0.81368130       0.89057000
    87  C          0.96778000       0.68631870       0.39057000
    88  C          0.03222000       0.18631870       0.10943000
    89  H          0.03060000       0.27920000       0.68420000
    90  H          0.96940000       0.77920000       0.81580000
    91  H          0.96940000       0.72080000       0.31580000
    92  H          0.03060000       0.22080000       0.18420000
    93  C          0.12442000       0.36943120       0.61702000
    94  C          0.87558000       0.86943120       0.88298000
    95  C          0.87558000       0.63056880       0.38298000
    96  C          0.12442000       0.13056880       0.11702000
    97  H          0.18430000       0.37330000       0.69570000
    98  H          0.81570000       0.87330000       0.80430000
    99  H          0.81570000       0.62670000       0.30430000
   100  H          0.18430000       0.12670000       0.19570000
   101  C          0.85098000       0.35361120       0.26772000
   102  C          0.14902000       0.85361120       0.23228000
   103  C          0.14902000       0.64638880       0.73228000
   104  C          0.85098000       0.14638880       0.76772000
   105  C          0.77267000       0.35234130       0.17143000
   106  C          0.22733000       0.85234130       0.32857000
   107  C          0.22733000       0.64765870       0.82857000
   108  C          0.77267000       0.14765870       0.67143000
   109  H          0.71030000       0.35130000       0.09450000
   110  H          0.28970000       0.85130000       0.40550000
   111  H          0.28970000       0.64870000       0.90550000
   112  H          0.71030000       0.14870000       0.59450000
   113  O          0.43352150       0.71195800       0.30247150
   114  O          0.56647850       0.21195800       0.19752850
   115  O          0.56647850       0.28804200       0.69752850
   116  O          0.43352150       0.78804200       0.80247150
   117  C          0.34052000       0.69172120       0.19302000
   118  C          0.65948000       0.19172120       0.30698000
   119  C          0.65948000       0.30827880       0.80698000
   120  C          0.34052000       0.80827880       0.69302000
   121  H          0.36450000       0.64430000       0.15480000
   122  H          0.63550000       0.14430000       0.34520000
   123  H          0.63550000       0.35570000       0.84520000
   124  H          0.36450000       0.85570000       0.65480000
   125  H          0.34130000       0.72780000       0.11680000
   126  H          0.65870000       0.22780000       0.38320000
   127  H          0.65870000       0.27220000       0.88320000
   128  H          0.34130000       0.77220000       0.61680000
   129  H          0.25210000       0.68910000       0.23230000
   130  H          0.74790000       0.18910000       0.26770000
   131  H          0.74790000       0.31090000       0.76770000
   132  H          0.25210000       0.81090000       0.73230000
   133  O          0.61062150       0.74870800       0.48992150
   134  O          0.38937850       0.24870800       0.01007850
   135  O          0.38937850       0.25129200       0.51007850
   136  O          0.61062150       0.75129200      -0.01007850
   137  C          0.70772000       0.77249130       0.59412000
   138  C          0.29228000       0.27249130       0.90588000
   139  C          0.29228000       0.22750870       0.40588000
   140  C          0.70772000       0.72750870       0.09412000
   141  H          0.66600000       0.77820000       0.68620000
   142  H          0.33400000       0.27820000       0.81380000
   143  H          0.33400000       0.22180000       0.31380000
   144  H          0.66600000       0.72180000       0.18620000
   145  H          0.74470000       0.81890000       0.56450000
   146  H          0.25530000       0.31890000       0.93550000
   147  H          0.25530000       0.18110000       0.43550000
   148  H          0.74470000       0.68110000       0.06450000
   149  H          0.77830000       0.73640000       0.60250000
   150  H          0.22170000       0.23640000       0.89750000
   151  H          0.22170000       0.26360000       0.39750000
   152  H          0.77830000       0.76360000       0.10250000
   153  O          0.82302150       0.46782800       0.81886160
   154  O          0.17697850       0.96782800       0.68113840
   155  O          0.17697850       0.53217200       0.18113840
   156  O          0.82302150       0.03217200       0.31886160
   157  H          0.65430000       0.55081600       0.87030000
   158  H          0.34570000       0.05081600       0.62970000
   159  H          0.34570000       0.44918400       0.12970000
   160  H          0.65430000       0.94918400       0.37030000
   161  O          0.72992160       0.55982900       0.93348170
   162  O          0.27007840       0.05982900       0.56651830
   163  O          0.27007840       0.44017100       0.06651830
   164  O          0.72992160       0.94017100       0.43348170
   165  C          0.82662000       0.51419110       0.91202000
   166  C          0.17338000       0.01419110       0.58798000
   167  C          0.17338000       0.48580890       0.08798000
   168  C          0.82662000       0.98580890       0.41202000
   169  C          0.94332000       0.52588120       0.01122000
   170  C          0.05668000       0.02588120       0.48878000
   171  C          0.05668000       0.47411880      -0.01122000
   172  C          0.94332000       0.97411880       0.51122000
   173  H          0.91390000       0.52090000       0.11020000
   174  H          0.08610000       0.02090000       0.38980000
   175  H          0.08610000       0.47910000       0.88980000
   176  H          0.91390000       0.97910000       0.61020000
   177  H          0.97560000       0.57600000      -0.00070000
   178  H          0.02440000       0.07600000       0.50070000
   179  H          0.02440000       0.42400000       0.00070000
   180  H          0.97560000       0.92400000       0.49930000
