data_HERHEV
_symmetry_space_group_name_H-M    'P1'
_symmetry_Int_Tables_number       1
loop_
_symmetry_equiv_pos_site_id
_symmetry_equiv_pos_as_xyz
1 x,y,z
_cell_length_a                   7.76633
_cell_length_b                   21.05279
_cell_length_c                   11.14025
_cell_angle_alpha                90.0
_cell_angle_beta                 92.108617
_cell_angle_gamma                90.0
loop_
_atom_site_label
_atom_site_type_symbol
_atom_site_fract_x
_atom_site_fract_y
_atom_site_fract_z
     1  O          0.74213120       0.01445400       0.04405900
     2  O          0.75786880       0.51445400       0.45594100
     3  O          0.25786880       0.98554600       0.95594100
     4  O          0.24213120       0.48554600       0.54405900
     5  O          0.94290120       0.00473400       0.18475900
     6  O          0.55709880       0.50473400       0.31524100
     7  O          0.05709880      -0.00473400       0.81524100
     8  O          0.44290120       0.49526600       0.68475900
     9  O          0.67074130       0.81477500       0.32481900
    10  O          0.82925870       0.31477500       0.17518100
    11  O          0.32925870       0.18522500       0.67518100
    12  O          0.17074130       0.68522500       0.82481900
    13  O          0.88000140       0.88118600       0.36610900
    14  O          0.61999860       0.38118600       0.13389100
    15  O          0.11999860       0.11881400       0.63389100
    16  O          0.38000140       0.61881400       0.86610900
    17  O          0.84383120       0.89293500       0.69612200
    18  O          0.65616880       0.39293500       0.80387800
    19  O          0.15616880       0.10706500       0.30387800
    20  O          0.34383120       0.60706500       0.19612200
    21  O          0.66632130       0.94848500       0.80021100
    22  O          0.83367870       0.44848500       0.69978900
    23  O          0.33367870       0.05151500       0.19978900
    24  O          0.16632130       0.55151500       0.30021100
    25  O          0.68272140       0.67124500       0.98505890
    26  O          0.81727860       0.17124500       0.51494110
    27  O          0.31727860       0.32875500       0.01494110
    28  O          0.18272140       0.82875500       0.48505890
    29  O          0.50821120       0.73027500       0.08547100
    30  O         -0.00821120       0.23027500       0.41452900
    31  O          0.49178880       0.26972500       0.91452900
    32  O          0.00821120       0.76972500       0.58547100
    33  O          0.38527110       0.84915500       0.92836100
    34  O          0.11472890       0.34915500       0.57163900
    35  O          0.61472890       0.15084500       0.07163900
    36  O          0.88527110       0.65084500       0.42836100
    37  O          0.22915130       0.84845600       0.76243100
    38  O          0.27084870       0.34845600       0.73756900
    39  O          0.77084870       0.15154400       0.23756900
    40  O          0.72915130       0.65154400       0.26243100
    41  O          0.17810130       0.75266500       0.23040900
    42  O          0.32189870       0.25266500       0.26959100
    43  O          0.82189870       0.24733500       0.76959100
    44  O          0.67810130       0.74733500       0.73040900
    45  O          0.02795130       0.67895500       0.13487100
    46  O          0.47204870       0.17895500       0.36512900
    47  O          0.97204870       0.32104500       0.86512900
    48  O          0.52795130       0.82104500       0.63487100
    49  N          0.88965130       0.92365500       0.05821900
    50  N          0.61034870       0.42365500       0.44178100
    51  N          0.11034870       0.07634500       0.94178100
    52  N          0.38965130       0.57634500       0.55821900
    53  N          0.85284140       0.98525500       0.10053100
    54  N          0.64715860       0.48525500       0.39946900
    55  N          0.14715860       0.01474500       0.89946900
    56  N          0.35284140       0.51474500       0.60053100
    57  N          0.85452130       0.83713500       0.18243900
    58  N          0.64547870       0.33713500       0.31756100
    59  N          0.14547870       0.16286500       0.81756100
    60  N          0.35452130       0.66286500       0.68243900
    61  N          0.79671140       0.84639600       0.30001100
    62  N          0.70328860       0.34639600       0.19998900
    63  N          0.20328860       0.15360400       0.69998900
    64  N          0.29671140       0.65360400       0.80001100
    65  N          0.79307120       0.86369500       0.88459100
    66  N          0.70692880       0.36369500       0.61540900
    67  N          0.20692880       0.13630500       0.11540900
    68  N          0.29307120       0.63630500       0.38459100
    69  N          0.76790130       0.90530500       0.78628100
    70  N          0.73209870       0.40530500       0.71371900
    71  N          0.23209870       0.09469500       0.21371900
    72  N          0.26790130       0.59469500       0.28628100
    73  N          0.75065130       0.77172500       0.02169100
    74  N          0.74934870       0.27172500       0.47830900
    75  N          0.24934870       0.22827500       0.97830900
    76  N          0.25065130       0.72827500       0.52169100
    77  N          0.63989140       0.72033500       0.03238100
    78  N          0.86010860       0.22033500       0.46761900
    79  N          0.36010860       0.27966500       0.96761900
    80  N          0.13989140       0.77966500       0.53238100
    81  N          0.09614120       0.85726500       0.93557100
    82  N          0.40385880       0.35726500       0.56442900
    83  N          0.90385880       0.14273500       0.06442900
    84  N          0.59614120       0.64273500       0.43557100
    85  N          0.24914130       0.84971500       0.87058900
    86  N          0.25085870       0.34971500       0.62941100
    87  N          0.75085870       0.15028500       0.12941100
    88  N          0.74914130       0.65028500       0.37058900
    89  N          0.06270130       0.77257500       0.05047900
    90  N          0.43729870       0.27257500       0.44952100
    91  N          0.93729870       0.22742500       0.94952100
    92  N          0.56270130       0.72742500       0.55047900
    93  N          0.08977140       0.73181600       0.14566100
    94  N          0.41022860       0.23181600       0.35433900
    95  N          0.91022860       0.26818400       0.85433900
    96  N          0.58977140       0.76818400       0.64566100
    97  C         -0.01540850       0.88053600       0.13826110
    98  C          0.51540850       0.38053600       0.36173890
    99  C          0.01540850       0.11946400       0.86173890
   100  C          0.48459150       0.61946400       0.63826110
   101  H          0.04677000       0.90363900       0.20523500
   102  H          0.45323000       0.40363900       0.29476500
   103  H          0.95323000       0.09636100       0.79476500
   104  H          0.54677000       0.59636100       0.70523500
   105  C          0.74654150       0.88779600       0.00064100
   106  C          0.75345850       0.38779600       0.49935900
   107  C          0.25345850       0.11220400      -0.00064100
   108  C          0.24654150       0.61220400       0.50064100
   109  H          0.63976500       0.91427200      -0.00640300
   110  H          0.86023500       0.41427200       0.50640300
   111  H          0.36023500       0.08572800       0.00640300
   112  H          0.13976500       0.58572800       0.49359700
   113  C          0.72047150       0.82923600       0.08615110
   114  C          0.77952850       0.32923600       0.41384890
   115  C          0.27952850       0.17076400       0.91384890
   116  C          0.22047150       0.67076400       0.58615110
   117  H          0.60266000       0.82949500       0.11948200
   118  H          0.89734000       0.32949500       0.38051800
   119  H          0.39734000       0.17050500       0.88051800
   120  H          0.10266000       0.67050500       0.61948200
   121  C          0.94347150       0.82363600       0.88193890
   122  C          0.55652850       0.32363600       0.61806110
   123  C          0.05652850       0.17636400       0.11806110
   124  C          0.44347150       0.67636400       0.38193890
   125  H          0.96519300       0.80961700       0.79807500
   126  H          0.53480700       0.30961700       0.70192500
   127  H          0.03480700       0.19038300       0.20192500
   128  H          0.46519300       0.69038300       0.29807500
   129  C          0.91462150       0.76481600       0.96599890
   130  C          0.58537850       0.26481600       0.53400110
   131  C          0.08537850       0.23518400       0.03400110
   132  C          0.41462150       0.73518400       0.46599890
   133  H          0.92122000       0.72392900       0.92068900
   134  H          0.57878000       0.22392900       0.57931100
   135  H          0.07878000       0.27607100       0.07931100
   136  H          0.42122000       0.77607100       0.42068900
   137  C          0.11216150       0.83921600       0.06145110
   138  C          0.38783850       0.33921600       0.43854890
   139  C          0.88783850       0.16078400       0.93854890
   140  C          0.61216150       0.66078400       0.56145110
   141  H          0.23384100       0.84357400       0.09291800
   142  H          0.26615900       0.34357400       0.40708200
   143  H          0.76615900       0.15642600       0.90708200
   144  H          0.73384100       0.65642600       0.59291800
   145  O          0.66837120       0.09722500       0.72829900
   146  O          0.83162880       0.59722500       0.77170100
   147  O          0.33162880       0.90277500       0.27170100
   148  O          0.16837120       0.40277500       0.22829900
   149  O          0.42188120       0.06099400       0.78339800
   150  O          0.07811880       0.56099400       0.71660200
   151  O          0.57811880       0.93900600       0.21660200
   152  O          0.92188120       0.43900600       0.28339800
   153  N          0.53869130       0.06456500       0.71135900
   154  N          0.96130870       0.56456500       0.78864100
   155  N          0.46130870       0.93543500       0.28864100
   156  N          0.03869130       0.43543500       0.21135900
   157  N          0.51762130       0.03361500       0.60567900
   158  N         -0.01762130       0.53361500       0.89432100
   159  N          0.48237870       0.96638500       0.39432100
   160  N          0.01762130       0.46638500       0.10567900
   161  C          0.38499160       0.98393600       0.59631110
   162  C          0.11500840       0.48393600       0.90368890
   163  C          0.61500840       0.01606400       0.40368890
   164  C          0.88499160       0.51606400       0.09631110
   165  H          0.28500400      -0.00404600       0.64402600
   166  H          0.21499600       0.49595400       0.85597400
   167  H          0.71499600       0.00404600       0.35597400
   168  H          0.78500400       0.50404600       0.14402600
   169  H          0.43195100       0.94330600       0.62808500
   170  H          0.06804900       0.44330600       0.87191500
   171  H          0.56804900       0.05669400       0.37191500
   172  H          0.93195100       0.55669400       0.12808500
   173  C          0.67093150       0.02370600       0.53476110
   174  C          0.82906850       0.52370600       0.96523890
   175  C          0.32906850       0.97629400       0.46523890
   176  C          0.17093150       0.47629400       0.03476110
   177  H          0.73316900       0.98518600       0.56318400
   178  H          0.76683100       0.48518600       0.93681600
   179  H          0.26683100       0.01481400       0.43681600
   180  H          0.23316900       0.51481400       0.06318400
   181  H          0.74961100       0.06049500       0.54433800
   182  H          0.75038900       0.56049500       0.95566200
   183  H          0.25038900       0.93950500       0.45566200
   184  H          0.24961100       0.43950500       0.04433800
