data_HERZOU
_symmetry_space_group_name_H-M    'P1'
_symmetry_Int_Tables_number       1
loop_
_symmetry_equiv_pos_site_id
_symmetry_equiv_pos_as_xyz
1 x,y,z
_cell_length_a                   15.4851
_cell_length_b                   11.5547
_cell_length_c                   17.81111
_cell_angle_alpha                90.0
_cell_angle_beta                 110.4789
_cell_angle_gamma                90.0
loop_
_atom_site_label
_atom_site_type_symbol
_atom_site_fract_x
_atom_site_fract_y
_atom_site_fract_z
     1  B          0.78143000       0.38624000       0.69813000
     2  B          0.28143000       0.88624000       0.69813000
     3  B          0.21857000       0.38624000       0.80187000
     4  B          0.71857000       0.88624000       0.80187000
     5  B          0.21857000       0.61376000       0.30187000
     6  B          0.71857000       0.11376000       0.30187000
     7  B          0.78143000       0.61376000       0.19813000
     8  B          0.28143000       0.11376000       0.19813000
     9  B          0.75963000       0.48754000       0.81373000
    10  B          0.25963000       0.98754000       0.81373000
    11  B          0.24037000       0.48754000       0.68627000
    12  B          0.74037000       0.98754000       0.68627000
    13  B          0.24037000       0.51246000       0.18627000
    14  B          0.74037000       0.01246000       0.18627000
    15  B          0.75963000       0.51246000       0.31373000
    16  B          0.25963000       0.01246000       0.31373000
    17  B          0.74833000       0.28344000       0.80793000
    18  B          0.24833000       0.78344000       0.80793000
    19  B          0.25167000       0.28344000       0.69207000
    20  B          0.75167000       0.78344000       0.69207000
    21  B          0.25167000       0.71656000       0.19207000
    22  B          0.75167000       0.21656000       0.19207000
    23  B          0.74833000       0.71656000       0.30793000
    24  B          0.24833000       0.21656000       0.30793000
    25  B          0.90593000       0.39325000       0.63993000
    26  B          0.40593000       0.89325000       0.63993000
    27  B          0.09407000       0.39325000       0.86007000
    28  B          0.59407000       0.89325000       0.86007000
    29  B          0.09407000       0.60675000       0.36007000
    30  B          0.59407000       0.10675000       0.36007000
    31  B          0.90593000       0.60675000       0.13993000
    32  B          0.40593000       0.10675000       0.13993000
    33  B          0.74953000       0.39674000       0.55273000
    34  B          0.24953000       0.89674000       0.55273000
    35  B          0.25047000       0.39674000       0.94727000
    36  B          0.75047000       0.89674000       0.94727000
    37  B          0.25047000       0.60326000       0.44727000
    38  B          0.75047000       0.10326000       0.44727000
    39  B          0.74953000       0.60326000       0.05273000
    40  B          0.24953000       0.10326000       0.05273000
    41  O          0.76950190       0.49052000       0.74095150
    42  O          0.26950190      -0.00948000       0.74095150
    43  O          0.23049810       0.49052000       0.75904850
    44  O          0.73049810      -0.00948000       0.75904850
    45  O          0.23049810       0.50948000       0.25904850
    46  O          0.73049810       0.00948000       0.25904850
    47  O          0.76950190       0.50948000       0.24095150
    48  O          0.26950190       0.00948000       0.24095150
    49  O          0.75222000       0.38482000       0.84937150
    50  O          0.25222000       0.88482000       0.84937150
    51  O          0.24778000       0.38482000       0.65062850
    52  O          0.74778000       0.88482000       0.65062850
    53  O          0.24778000       0.61518000       0.15062850
    54  O          0.74778000       0.11518000       0.15062850
    55  O          0.75222000       0.61518000       0.34937150
    56  O          0.25222000       0.11518000       0.34937150
    57  O          0.76067190       0.28222000       0.73597150
    58  O          0.26067190       0.78222000       0.73597150
    59  O          0.23932810       0.28222000       0.76402850
    60  O          0.73932810       0.78222000       0.76402850
    61  O          0.23932810       0.71778000       0.26402850
    62  O          0.73932810       0.21778000       0.26402850
    63  O          0.76067190       0.71778000       0.23597150
    64  O          0.26067190       0.21778000       0.23597150
    65  O          0.87915170       0.38222000       0.70363140
    66  O          0.37915170       0.88222000       0.70363140
    67  O          0.12084830       0.38222000       0.79636860
    68  O          0.62084830       0.88222000       0.79636860
    69  O          0.12084830       0.61778000       0.29636860
    70  O          0.62084830       0.11778000       0.29636860
    71  O          0.87915170       0.61778000       0.20363140
    72  O          0.37915170       0.11778000       0.20363140
    73  O          0.84223190       0.40033000       0.56332160
    74  O          0.34223190       0.90033000       0.56332160
    75  O          0.15776810       0.40033000       0.93667840
    76  O          0.65776810       0.90033000       0.93667840
    77  O          0.15776810       0.59967000       0.43667840
    78  O          0.65776810       0.09967000       0.43667840
    79  O          0.84223190       0.59967000       0.06332160
    80  O          0.34223190       0.09967000       0.06332160
    81  O          0.72016170       0.39162000       0.61515140
    82  O          0.22016170       0.89162000       0.61515140
    83  O          0.27983830       0.39162000       0.88484860
    84  O          0.77983830       0.89162000       0.88484860
    85  O          0.27983830       0.60838000       0.38484860
    86  O          0.77983830       0.10838000       0.38484860
    87  O          0.72016170       0.60838000       0.11515140
    88  O          0.22016170       0.10838000       0.11515140
    89  O          0.75582000       0.58602000       0.85386160
    90  O          0.25582000       0.08602000       0.85386160
    91  O          0.24418000       0.58602000       0.64613840
    92  O          0.74418000       0.08602000       0.64613840
    93  O          0.24418000       0.41398000       0.14613840
    94  O          0.74418000       0.91398000       0.14613840
    95  O          0.75582000       0.41398000       0.35386160
    96  O          0.25582000       0.91398000       0.35386160
    97  H          0.76030000       0.64230000       0.82740000
    98  H          0.26030000       0.14230000       0.82740000
    99  H          0.23970000       0.64230000       0.67260000
   100  H          0.73970000       0.14230000       0.67260000
   101  H          0.23970000       0.35770000       0.17260000
   102  H          0.73970000       0.85770000       0.17260000
   103  H          0.76030000       0.35770000       0.32740000
   104  H          0.26030000       0.85770000       0.32740000
   105  O          0.72982000       0.18593000       0.84099170
   106  O          0.22982000       0.68593000       0.84099170
   107  O          0.27018000       0.18593000       0.65900830
   108  O          0.77018000       0.68593000       0.65900830
   109  O          0.27018000       0.81407000       0.15900830
   110  O          0.77018000       0.31407000       0.15900830
   111  O          0.72982000       0.81407000       0.34099170
   112  O          0.22982000       0.31407000       0.34099170
   113  H          0.72780000       0.13080000       0.81140000
   114  H          0.22780000       0.63080000       0.81140000
   115  H          0.27220000       0.13080000       0.68860000
   116  H          0.77220000       0.63080000       0.68860000
   117  H          0.27220000       0.86920000       0.18860000
   118  H          0.77220000       0.36920000       0.18860000
   119  H          0.72780000       0.86920000       0.31140000
   120  H          0.22780000       0.36920000       0.31140000
   121  O         -0.00448000       0.39733000       0.64539170
   122  O          0.49552000       0.89733000       0.64539170
   123  O          0.00448000       0.39733000       0.85460830
   124  O          0.50448000       0.89733000       0.85460830
   125  O          0.00448000       0.60267000       0.35460830
   126  O          0.50448000       0.10267000       0.35460830
   127  O         -0.00448000       0.60267000       0.14539170
   128  O          0.49552000       0.10267000       0.14539170
   129  H          0.02880000       0.39290000       0.69260000
   130  H          0.52880000       0.89290000       0.69260000
   131  H          0.97120000       0.39290000       0.80740000
   132  H          0.47120000       0.89290000       0.80740000
   133  H          0.97120000       0.60710000       0.30740000
   134  H          0.47120000       0.10710000       0.30740000
   135  H          0.02880000       0.60710000       0.19260000
   136  H          0.52880000       0.10710000       0.19260000
   137  O          0.68594190       0.40073000       0.47719150
   138  O          0.18594190       0.90073000       0.47719150
   139  O          0.31405810       0.40073000       0.02280850
   140  O          0.81405810       0.90073000       0.02280850
   141  O          0.31405810       0.59927000       0.52280850
   142  O          0.81405810       0.09927000       0.52280850
   143  O          0.68594190       0.59927000       0.97719150
   144  O          0.18594190       0.09927000       0.97719150
   145  H          0.71240000       0.40340000       0.44460000
   146  H          0.21240000       0.90340000       0.44460000
   147  H          0.28760000       0.40340000       0.05540000
   148  H          0.78760000       0.90340000       0.05540000
   149  H          0.28760000       0.59660000       0.55540000
   150  H          0.78760000       0.09660000       0.55540000
   151  H          0.71240000       0.59660000       0.94460000
   152  H          0.21240000       0.09660000       0.94460000
   153  N          0.46674000       0.78126000       0.48243000
   154  N          0.96674000       0.28126000       0.48243000
   155  N          0.53326000       0.78126000       0.01757000
   156  N          0.03326000       0.28126000       0.01757000
   157  N          0.53326000       0.21874000       0.51757000
   158  N          0.03326000       0.71874000       0.51757000
   159  N          0.46674000       0.21874000       0.98243000
   160  N          0.96674000       0.71874000       0.98243000
   161  H          0.41570000       0.80620000       0.48560000
   162  H          0.91570000       0.30620000       0.48560000
   163  H          0.58430000       0.80620000       0.01440000
   164  H          0.08430000       0.30620000       0.01440000
   165  H          0.58430000       0.19380000       0.51440000
   166  H          0.08430000       0.69380000       0.51440000
   167  H          0.41570000       0.19380000       0.98560000
   168  H          0.91570000       0.69380000       0.98560000
   169  C          0.50255000       0.68276000       0.51854000
   170  C          0.00255000       0.18276000       0.51854000
   171  C          0.49745000       0.68276000       0.98146000
   172  C         -0.00255000       0.18276000       0.98146000
   173  C          0.49745000       0.31724000       0.48146000
   174  C         -0.00255000       0.81724000       0.48146000
   175  C          0.50255000       0.31724000       0.01854000
   176  C          0.00255000       0.81724000       0.01854000
   177  H          0.47340000       0.64260000       0.54820000
   178  H          0.97340000       0.14260000       0.54820000
   179  H          0.52660000       0.64260000       0.95180000
   180  H          0.02660000       0.14260000       0.95180000
   181  H          0.52660000       0.35740000       0.45180000
   182  H          0.02660000       0.85740000       0.45180000
   183  H          0.47340000       0.35740000       0.04820000
   184  H          0.97340000       0.85740000       0.04820000
   185  C          0.57805000       0.64215000       0.51234000
   186  C          0.07805000       0.14215000       0.51234000
   187  C          0.42195000       0.64215000       0.98766000
   188  C          0.92195000       0.14215000       0.98766000
   189  C          0.42195000       0.35785000       0.48766000
   190  C          0.92195000       0.85785000       0.48766000
   191  C          0.57805000       0.35785000       0.01234000
   192  C          0.07805000       0.85785000       0.01234000
   193  H          0.60240000       0.57310000       0.53790000
   194  H          0.10240000       0.07310000       0.53790000
   195  H          0.39760000       0.57310000       0.96210000
   196  H          0.89760000       0.07310000       0.96210000
   197  H          0.39760000       0.42690000       0.46210000
   198  H          0.89760000       0.92690000       0.46210000
   199  H          0.60240000       0.42690000       0.03790000
   200  H          0.10240000       0.92690000       0.03790000
   201  C          0.62184000       0.69856000       0.46924000
   202  C          0.12184000       0.19856000       0.46924000
   203  C          0.37816000       0.69856000       0.03076000
   204  C          0.87816000       0.19856000       0.03076000
   205  C          0.37816000       0.30144000       0.53076000
   206  C          0.87816000       0.80144000       0.53076000
   207  C          0.62184000       0.30144000       0.96924000
   208  C          0.12184000       0.80144000       0.96924000
   209  H          0.67470000       0.66750000       0.46390000
   210  H          0.17470000       0.16750000       0.46390000
   211  H          0.32530000       0.66750000       0.03610000
   212  H          0.82530000       0.16750000       0.03610000
   213  H          0.32530000       0.33250000       0.53610000
   214  H          0.82530000       0.83250000       0.53610000
   215  H          0.67470000       0.33250000       0.96390000
   216  H          0.17470000       0.83250000       0.96390000
   217  C          0.58785000       0.79976000       0.43454000
   218  C          0.08785000       0.29976000       0.43454000
   219  C          0.41215000       0.79976000       0.06546000
   220  C          0.91215000       0.29976000       0.06546000
   221  C          0.41215000       0.20024000       0.56546000
   222  C          0.91215000       0.70024000       0.56546000
   223  C          0.58785000       0.20024000       0.93454000
   224  C          0.08785000       0.70024000       0.93454000
   225  H          0.61820000       0.84040000       0.40610000
   226  H          0.11820000       0.34040000       0.40610000
   227  H          0.38180000       0.84040000       0.09390000
   228  H          0.88180000       0.34040000       0.09390000
   229  H          0.38180000       0.15960000       0.59390000
   230  H          0.88180000       0.65960000       0.59390000
   231  H          0.61820000       0.15960000       0.90610000
   232  H          0.11820000       0.65960000       0.90610000
   233  C          0.50905000       0.84286000       0.44074000
   234  C          0.00905000       0.34286000       0.44074000
   235  C          0.49095000       0.84286000       0.05926000
   236  C         -0.00905000       0.34286000       0.05926000
   237  C          0.49095000       0.15714000       0.55926000
   238  C         -0.00905000       0.65714000       0.55926000
   239  C          0.50905000       0.15714000       0.94074000
   240  C          0.00905000       0.65714000       0.94074000
   241  H          0.48480000       0.91290000       0.41690000
   242  H          0.98480000       0.41290000       0.41690000
   243  H          0.51520000       0.91290000       0.08310000
   244  H          0.01520000       0.41290000       0.08310000
   245  H          0.51520000       0.08710000       0.58310000
   246  H          0.01520000       0.58710000       0.58310000
   247  H          0.48480000       0.08710000       0.91690000
   248  H          0.98480000       0.58710000       0.91690000
   249  N          0.50000000       0.37819000       0.75000000
   250  N          0.00000000       0.87819000       0.75000000
   251  N          0.50000000       0.62181000       0.25000000
   252  N          0.00000000       0.12181000       0.25000000
   253  C          0.53375000       0.44067000       0.70005000
   254  C          0.03375000       0.94067000       0.70005000
   255  C          0.46625000       0.44067000       0.79995000
   256  C          0.96625000       0.94067000       0.79995000
   257  C          0.46625000       0.55933000       0.29995000
   258  C          0.96625000       0.05933000       0.29995000
   259  C          0.53375000       0.55933000       0.20005000
   260  C          0.03375000       0.05933000       0.20005000
   261  H          0.55960000       0.40060000       0.66780000
   262  H          0.05960000       0.90060000       0.66780000
   263  H          0.44040000       0.40060000       0.83220000
   264  H          0.94040000       0.90060000       0.83220000
   265  H          0.44040000       0.59940000       0.33220000
   266  H          0.94040000       0.09940000       0.33220000
   267  H          0.55960000       0.59940000       0.16780000
   268  H          0.05960000       0.09940000       0.16780000
   269  C          0.53055000       0.55128000       0.69616000
   270  C          0.03055000       0.05128000       0.69616000
   271  C          0.46945000       0.55128000       0.80384000
   272  C          0.96945000       0.05128000       0.80384000
   273  C          0.46945000       0.44872000       0.30384000
   274  C          0.96945000       0.94872000       0.30384000
   275  C          0.53055000       0.44872000       0.19616000
   276  C          0.03055000       0.94872000       0.19616000
   277  H          0.54800000       0.59240000       0.65890000
   278  H          0.04800000       0.09240000       0.65890000
   279  H          0.45200000       0.59240000       0.84110000
   280  H          0.95200000       0.09240000       0.84110000
   281  H          0.45200000       0.40760000       0.34110000
   282  H          0.95200000       0.90760000       0.34110000
   283  H          0.54800000       0.40760000       0.15890000
   284  H          0.04800000       0.90760000       0.15890000
   285  C          0.50000000       0.60431200       0.75000000
   286  C          0.00000000       0.10431200       0.75000000
   287  C          0.50000000       0.39568800       0.25000000
   288  C         -0.00000000       0.89568800       0.25000000
   289  H          0.50000000       0.68480000       0.75000000
   290  H          0.00000000       0.18480000       0.75000000
   291  H          0.50000000       0.31520000       0.25000000
   292  H          0.00000000       0.81520000       0.25000000
