data_HESPED
_symmetry_space_group_name_H-M    'P1'
_symmetry_Int_Tables_number       1
loop_
_symmetry_equiv_pos_site_id
_symmetry_equiv_pos_as_xyz
1 x,y,z
_cell_length_a                   20.9004
_cell_length_b                   4.96141
_cell_length_c                   24.0795
_cell_angle_alpha                90.0
_cell_angle_beta                 102.143
_cell_angle_gamma                90.0
loop_
_atom_site_label
_atom_site_type_symbol
_atom_site_fract_x
_atom_site_fract_y
_atom_site_fract_z
     1  Cl         0.03299700       0.10183000       0.42051600
     2  Cl         0.96700300       0.10183000       0.07948400
     3  Cl         0.53299700       0.60183000       0.42051600
     4  Cl         0.46700300       0.60183000       0.07948400
     5  Cl         0.96700300       0.89817000       0.57948400
     6  Cl         0.03299700       0.89817000       0.92051600
     7  Cl         0.46700300       0.39817000       0.57948400
     8  Cl         0.53299700       0.39817000       0.92051600
     9  Cl         0.10675900       0.39944000       0.58617700
    10  Cl         0.89324100       0.39944000       0.91382300
    11  Cl         0.60675900       0.89944000       0.58617700
    12  Cl         0.39324100       0.89944000       0.91382300
    13  Cl         0.89324100       0.60056000       0.41382300
    14  Cl         0.10675900       0.60056000       0.08617700
    15  Cl         0.39324100       0.10056000       0.41382300
    16  Cl         0.60675900       0.10056000       0.08617700
    17  Cl         0.24186700       0.50074000       0.42553600
    18  Cl         0.75813300       0.50074000       0.07446400
    19  Cl         0.74186700       0.00074000       0.42553600
    20  Cl         0.25813300       0.00074000       0.07446400
    21  Cl         0.75813300       0.49926000       0.57446400
    22  Cl         0.24186700       0.49926000       0.92553600
    23  Cl         0.25813300      -0.00074000       0.57446400
    24  Cl         0.74186700      -0.00074000       0.92553600
    25  N          0.07782000       0.74419000       0.50149160
    26  N          0.92218000       0.74419000      -0.00149160
    27  N          0.57782000       0.24419000       0.50149160
    28  N          0.42218000       0.24419000      -0.00149160
    29  N          0.92218000       0.25581000       0.49850840
    30  N          0.07782000       0.25581000       0.00149160
    31  N          0.42218000       0.75581000       0.49850840
    32  N          0.57782000       0.75581000       0.00149160
    33  N          0.13312000       0.76679000       0.42697150
    34  N          0.86688000       0.76679000       0.07302850
    35  N          0.63312000       0.26679000       0.42697150
    36  N          0.36688000       0.26679000       0.07302850
    37  N          0.86688000       0.23321000       0.57302850
    38  N          0.13312000       0.23321000       0.92697150
    39  N          0.36688000       0.73321000       0.57302850
    40  N          0.63312000       0.73321000       0.92697150
    41  N          0.16762000       0.47189000       0.50201170
    42  N          0.83238000       0.47189000      -0.00201170
    43  N          0.66762000      -0.02811000       0.50201170
    44  N          0.33238000      -0.02811000      -0.00201170
    45  N          0.83238000       0.52811000       0.49798830
    46  N          0.16762000       0.52811000       0.00201170
    47  N          0.33238000       0.02811000       0.49798830
    48  N          0.66762000       0.02811000       0.00201170
    49  C          0.11713000       0.54591100       0.52832000
    50  C          0.88287000       0.54591100       0.97168000
    51  C          0.61713000       0.04591100       0.52832000
    52  C          0.38287000       0.04591100       0.97168000
    53  C          0.88287000       0.45408900       0.47168000
    54  C          0.11713000       0.45408900       0.02832000
    55  C          0.38287000       0.95408900       0.47168000
    56  C          0.61713000       0.95408900       0.02832000
    57  C          0.08192000       0.86641100       0.45002000
    58  C          0.91808000       0.86641100       0.04998000
    59  C          0.58192000       0.36641100       0.45002000
    60  C          0.41808000       0.36641100       0.04998000
    61  C          0.91808000       0.13358900       0.54998000
    62  C          0.08192000       0.13358900       0.95002000
    63  C          0.41808000       0.63358900       0.54998000
    64  C          0.58192000       0.63358900       0.95002000
    65  C          0.17782000       0.58491100       0.45242000
    66  C          0.82218000       0.58491100       0.04758000
    67  C          0.67782000       0.08491100       0.45242000
    68  C          0.32218000       0.08491100       0.04758000
    69  C          0.82218000       0.41508900       0.54758000
    70  C          0.17782000       0.41508900       0.95242000
    71  C          0.32218000       0.91508900       0.54758000
    72  C          0.67782000       0.91508900       0.95242000
    73  S          0.03767900       0.56244000       0.28433800
    74  S          0.96232100       0.56244000       0.21566200
    75  S          0.53767900       0.06244000       0.28433800
    76  S          0.46232100       0.06244000       0.21566200
    77  S          0.96232100       0.43756000       0.71566200
    78  S          0.03767900       0.43756000       0.78433800
    79  S          0.46232100       0.93756000       0.71566200
    80  S          0.53767900       0.93756000       0.78433800
    81  N          0.13662000       0.88591100       0.31427180
    82  N          0.86338000       0.88591100       0.18572820
    83  N          0.63662000       0.38591100       0.31427180
    84  N          0.36338000       0.38591100       0.18572820
    85  N          0.86338000       0.11408900       0.68572820
    86  N          0.13662000       0.11408900       0.81427180
    87  N          0.36338000       0.61408900       0.68572820
    88  N          0.63662000       0.61408900       0.81427180
    89  C          0.18284000       0.06091600       0.30693000
    90  C          0.81716000       0.06091600       0.19307000
    91  C          0.68284000       0.56091600       0.30693000
    92  C          0.31716000       0.56091600       0.19307000
    93  C          0.81716000       0.93908400       0.69307000
    94  C          0.18284000       0.93908400       0.80693000
    95  C          0.31716000       0.43908400       0.69307000
    96  C          0.68284000       0.43908400       0.80693000
    97  H          0.21554000       0.10771600       0.33803000
    98  H          0.78446000       0.10771600       0.16197000
    99  H          0.71554000       0.60771600       0.33803000
   100  H          0.28446000       0.60771600       0.16197000
   101  H          0.78446000       0.89228400       0.66197000
   102  H          0.21554000       0.89228400       0.83803000
   103  H          0.28446000       0.39228400       0.66197000
   104  H          0.71554000       0.39228400       0.83803000
   105  C          0.18394000       0.17171800       0.25604000
   106  C          0.81606000       0.17171800       0.24396000
   107  C          0.68394000       0.67171800       0.25604000
   108  C          0.31606000       0.67171800       0.24396000
   109  C          0.81606000       0.82828200       0.74396000
   110  C          0.18394000       0.82828200       0.75604000
   111  C          0.31606000       0.32828200       0.74396000
   112  C          0.68394000       0.32828200       0.75604000
   113  H          0.21584000       0.29781800       0.25284000
   114  H          0.78416000       0.29781800       0.24716000
   115  H          0.71584000       0.79781800       0.25284000
   116  H          0.28416000       0.79781800       0.24716000
   117  H          0.78416000       0.70218200       0.74716000
   118  H          0.21584000       0.70218200       0.75284000
   119  H          0.28416000       0.20218200       0.74716000
   120  H          0.71584000       0.20218200       0.75284000
   121  C          0.09104000       0.91951600       0.21473000
   122  C          0.90896000       0.91951600       0.28527000
   123  C          0.59104000       0.41951600       0.21473000
   124  C          0.40896000       0.41951600       0.28527000
   125  C          0.90896000       0.08048400       0.78527000
   126  C          0.09104000       0.08048400       0.71473000
   127  C          0.40896000       0.58048400       0.78527000
   128  C          0.59104000       0.58048400       0.71473000
   129  H          0.05914000       0.86741600       0.18363000
   130  H          0.94086000       0.86741600       0.31637000
   131  H          0.55914000       0.36741600       0.18363000
   132  H          0.44086000       0.36741600       0.31637000
   133  H          0.94086000       0.13258400       0.81637000
   134  H          0.05914000       0.13258400       0.68363000
   135  H          0.44086000       0.63258400       0.81637000
   136  H          0.55914000       0.63258400       0.68363000
   137  C          0.13805000       0.09911700       0.20903000
   138  C          0.86195000       0.09911700       0.29097000
   139  C          0.63805000       0.59911700       0.20903000
   140  C          0.36195000       0.59911700       0.29097000
   141  C          0.86195000       0.90088300       0.79097000
   142  C          0.13805000       0.90088300       0.70903000
   143  C          0.36195000       0.40088300       0.79097000
   144  C          0.63805000       0.40088300       0.70903000
   145  H          0.13905000       0.17221700       0.17363000
   146  H          0.86095000       0.17221700       0.32637000
   147  H          0.63905000       0.67221700       0.17363000
   148  H          0.36095000       0.67221700       0.32637000
   149  H          0.86095000       0.82778300       0.82637000
   150  H          0.13905000       0.82778300       0.67363000
   151  H          0.36095000       0.32778300       0.82637000
   152  H          0.63905000       0.32778300       0.67363000
   153  C          0.09203000       0.81491200       0.26862000
   154  C          0.90797000       0.81491200       0.23138000
   155  C          0.59203000       0.31491200       0.26862000
   156  C          0.40797000       0.31491200       0.23138000
   157  C          0.90797000       0.18508800       0.73138000
   158  C          0.09203000       0.18508800       0.76862000
   159  C          0.40797000       0.68508800       0.73138000
   160  C          0.59203000       0.68508800       0.76862000
