data_HESSAD
_symmetry_space_group_name_H-M    'P1'
_symmetry_Int_Tables_number       1
loop_
_symmetry_equiv_pos_site_id
_symmetry_equiv_pos_as_xyz
1 x,y,z
_cell_length_a                   7.69012
_cell_length_b                   7.92782
_cell_length_c                   8.02053
_cell_angle_alpha                79.5663
_cell_angle_beta                 74.0723
_cell_angle_gamma                80.5812
loop_
_atom_site_label
_atom_site_type_symbol
_atom_site_fract_x
_atom_site_fract_y
_atom_site_fract_z
     1  S          0.09066600       0.64085700       0.59905700
     2  S          0.90933400       0.35914300       0.40094300
     3  C          0.15503000       0.81723000       0.65253000
     4  C          0.84497000       0.18277000       0.34747000
     5  H          0.07169600       0.90796000       0.69536400
     6  H          0.92830400       0.09204000       0.30463600
     7  C          0.33522000       0.81342000       0.62742000
     8  C          0.66478000       0.18658000       0.37258000
     9  H          0.38961800       0.90031300       0.65011000
    10  H          0.61038200       0.09968700       0.34989000
    11  C          0.43442000       0.65862000       0.56112000
    12  C          0.56558000       0.34138000       0.43888000
    13  C          0.31622000       0.54852000       0.53882000
    14  C          0.68378000       0.45148000       0.46118000
    15  C          0.37932000       0.39212000       0.47912000
    16  C          0.62068000       0.60788000       0.52088000
    17  H          0.29916700       0.32227700       0.46611800
    18  H          0.70083300       0.67772300       0.53388200
    19  N          0.33792000       0.02812000       0.22332000
    20  N          0.66208000       0.97188000       0.77668000
    21  N          0.91098000       0.80192000       0.11992000
    22  N          0.08902000       0.19808000       0.88008000
    23  C          0.43882000       0.36952000       0.94122000
    24  C          0.56118000       0.63048000       0.05878000
    25  H          0.40035200       0.28217900       0.90170200
    26  H          0.59964800       0.71782100       0.09829800
    27  C          0.31782000       0.50102000      -0.00078000
    28  C          0.68218000       0.49898000       0.00078000
    29  H          0.19639900       0.50341400      -0.00037500
    30  H          0.80360100       0.49658600       0.00037500
    31  C          0.37185190       0.63848190       0.06072000
    32  C          0.62814810       0.36151810       0.93928000
    33  C          0.24912000       0.77522000       0.11752000
    34  C          0.75088000       0.22478000       0.88248000
    35  C          0.29962000       0.91532000       0.17662000
    36  C          0.70038000       0.08468000       0.82338000
    37  C          0.06002000       0.78862000       0.11892000
    38  C          0.93998000       0.21138000       0.88108000
