data_HEZFUP
_symmetry_space_group_name_H-M    'P1'
_symmetry_Int_Tables_number       1
loop_
_symmetry_equiv_pos_site_id
_symmetry_equiv_pos_as_xyz
1 x,y,z
_cell_length_a                   10.17503
_cell_length_b                   11.28024
_cell_length_c                   11.39734
_cell_angle_alpha                87.8962
_cell_angle_beta                 74.3432
_cell_angle_gamma                67.6812
loop_
_atom_site_label
_atom_site_type_symbol
_atom_site_fract_x
_atom_site_fract_y
_atom_site_fract_z
     1  I          0.63418400       0.38078300       0.36646300
     2  I          0.36581600       0.61921700       0.63353700
     3  Br         0.22074800       0.43818700       0.35371700
     4  Br         0.77925200       0.56181300       0.64628300
     5  C          0.00807000       0.33156000       0.35516000
     6  C          0.99193000       0.66844000       0.64484000
     7  C          0.63289000       0.30637000      -0.00376000
     8  C          0.36711000       0.69363000       0.00376000
     9  C          0.96326000       0.22855000       0.35035000
    10  C          0.03674000       0.77145000       0.64965000
    11  N          0.99535000       0.01945000       0.34005000
    12  N          0.00465000       0.98055000       0.65995000
    13  O          0.78336000       0.91385000       0.35605000
    14  O          0.21664000       0.08615000       0.64395000
    15  C          0.82676000       0.21936000       0.35465000
    16  C          0.17324000       0.78064000       0.64535000
    17  C          0.66076000       0.38225000       0.17625000
    18  C          0.33924000       0.61775000       0.82375000
    19  C          0.21647000       0.07286000       0.33286000
    20  C          0.78353000       0.92714000       0.66714000
    21  C          0.06706000       0.10036000       0.34045000
    22  C          0.93294000       0.89964000       0.65955000
    23  C          0.15207000       0.30316000       0.34866000
    24  C          0.84793000       0.69684000       0.65134000
    25  O          0.60855000       0.10705000       0.35345000
    26  O          0.39145000       0.89295000       0.64655000
    27  C          0.84806000       0.09256000       0.34815000
    28  C          0.15194000       0.90744000       0.65185000
    29  C          0.25547000       0.17517000       0.33747000
    30  C          0.74453000       0.82483000       0.66253000
    31  C          0.73337000       0.04086000       0.35326000
    32  C          0.26663000       0.95914000       0.64674000
    33  C          0.68878000       0.38797000       0.92944000
    34  C          0.31122000       0.61203000       0.07056000
    35  C          0.71468000       0.46747000       0.11176000
    36  C          0.28532000       0.53253000       0.88824000
    37  C          0.07088000       0.87843000       0.32648000
    38  C          0.92912000       0.12157000       0.67352000
    39  C          0.67889000       0.85522000       0.35967000
    40  C          0.32111000       0.14478000       0.64033000
    41  C          0.61728000       0.30227000       0.12137000
    42  C          0.38272000       0.69773000       0.87863000
    43  C          0.72939000       0.46957000       0.98573000
    44  C          0.27061000       0.53043000       0.01427000
    45  C          0.76981200       0.71091000       0.34349000
    46  C          0.23018800       0.28909000       0.65651000
    47  H          0.69921500       0.39038300       0.84380600
    48  H          0.30078500       0.60961700       0.15619400
    49  H          0.60474900       0.24986500       0.95578600
    50  H          0.39525100       0.75013500       0.04421400
    51  H          0.76879600       0.52666800       0.93898700
    52  H          0.23120400       0.47333200       0.06101300
    53  H          0.57679200       0.24486800       0.16671100
    54  H          0.42320800       0.75513200       0.83328900
    55  H          0.74046000       0.52412900       0.15339100
    56  H          0.25954000       0.47587100       0.84660900
    57  H          0.60942900       0.86806700       0.43682100
    58  H          0.39057100       0.13193300       0.56317900
    59  H          0.63792800       0.87356700       0.29492100
    60  H          0.36207200       0.12643300       0.70507900
    61  H          0.71315500       0.65962900       0.34359400
    62  H          0.28684500       0.34037100       0.65640600
    63  H          0.81616600       0.68900600       0.40857100
    64  H          0.18383400       0.31099400       0.59142900
    65  H          0.84431600       0.69510400       0.26670800
    66  H          0.15568400       0.30489600       0.73329200
    67  H          0.28507400       0.98510100       0.32401900
    68  H          0.71492600       0.01489900       0.67598100
    69  H          0.35566500       0.16095100       0.33374100
    70  H          0.64433500       0.83904900       0.66625900
    71  H          0.02806500       0.84336000       0.40127600
    72  H          0.97193500       0.15664000       0.59872400
    73  H          0.05604600       0.84570100       0.25658300
    74  H          0.94395400       0.15429900       0.74341700
    75  H          0.17468600       0.85564200       0.31510500
    76  H          0.82531400       0.14435800       0.68489500
    77  H          0.93756800       0.41842700       0.36274600
    78  H          0.06243200       0.58157300       0.63725400
    79  N          0.57596000       0.31595000       0.67825000
    80  N          0.42404000       0.68405000       0.32175000
    81  N          0.60716000       0.38646000       0.62375000
    82  N          0.39284000       0.61354000       0.37625000
    83  N          0.54577000       0.23406000       0.73837000
    84  N          0.45423000       0.76594000       0.26163000
    85  O          0.28631200       0.18111100      -0.00418900
    86  O          0.71368800       0.81888900       0.00418900
    87  C          0.06361500       0.15711300      -0.00028800
    88  C          0.93638500       0.84288700       0.00028800
    89  C          0.31041300       0.03991200       0.96961100
    90  C          0.68958700       0.96008800       0.03038900
    91  C          0.12031500       0.24731400       0.00561300
    92  C          0.87968500       0.75268600      -0.00561300
    93  C          0.18661600       0.04211400       0.93941300
    94  C          0.81338400       0.95788600       0.06058700
    95  H          0.39874200       0.00200300       0.90379100
    96  H          0.60125800      -0.00200300       0.09620900
    97  H          0.32221800      -0.00514700       0.04159500
    98  H          0.67778200       0.00514700       0.95840500
    99  H          0.16622500       0.96738000       0.96544400
   100  H          0.83377500       0.03262000       0.03455600
   101  H          0.20072000       0.04553200       0.85278800
   102  H          0.79928000       0.95446800       0.14721200
   103  H          0.01870900       0.14115200       0.08098700
   104  H          0.98129100       0.85884800       0.91901300
   105  H          0.99057600       0.18723100       0.95530600
   106  H          0.00942400       0.81276900       0.04469400
   107  H          0.07079700       0.29830700       0.08189800
   108  H          0.92920300       0.70169300       0.91810200
   109  H          0.10738600       0.30177800       0.93940100
   110  H          0.89261400       0.69822200       0.06059900
