data_HEZJOO
_symmetry_space_group_name_H-M    'P1'
_symmetry_Int_Tables_number       1
loop_
_symmetry_equiv_pos_site_id
_symmetry_equiv_pos_as_xyz
1 x,y,z
_cell_length_a                   5.750917
_cell_length_b                   19.7906
_cell_length_c                   21.8517
_cell_angle_alpha                85.7617
_cell_angle_beta                 84.1717
_cell_angle_gamma                83.3728
loop_
_atom_site_label
_atom_site_type_symbol
_atom_site_fract_x
_atom_site_fract_y
_atom_site_fract_z
     1  C          0.96683000       0.23332000       0.77168000
     2  C          0.03317000       0.76668000       0.22832000
     3  C          0.97213000       0.27652000       0.71998000
     4  C          0.02787000       0.72348000       0.28002000
     5  C          0.87363000       0.25702000       0.83368000
     6  C          0.12637000       0.74298000       0.16632000
     7  C         -0.00697000       0.23842000       0.88548000
     8  C          0.00697000       0.76158000       0.11452000
     9  H          0.13980000       0.21300000       0.88160000
    10  H          0.86020000       0.78700000       0.11840000
    11  C          0.89493000       0.25752000       0.94328000
    12  C          0.10507000       0.74248000       0.05672000
    13  H          0.97820000       0.24610000       0.97760000
    14  H          0.02180000       0.75390000       0.02240000
    15  C          0.67283000       0.29362000       0.94978000
    16  C          0.32717000       0.70638000       0.05022000
    17  C          0.55222000       0.31203000       0.89878000
    18  C          0.44778000       0.68797000       0.10122000
    19  H          0.40400000       0.33640000       0.90300000
    20  H          0.59600000       0.66360000       0.09700000
    21  C          0.65332000       0.29393000       0.84128000
    22  C          0.34668000       0.70607000       0.15872000
    23  H          0.57180000       0.30670000       0.80700000
    24  H          0.42820000       0.69330000       0.19300000
    25  O          0.58215000       0.31002180       0.00809150
    26  O          0.41785000       0.68997820       0.99190850
    27  H          0.44600000       0.32740000       0.00710000
    28  H          0.55400000       0.67260000       0.99290000
    29  C          0.03887000       0.15862000       0.76978000
    30  C          0.96113000       0.84138000       0.23022000
    31  C          0.89372000       0.11162000       0.79848000
    32  C          0.10628000       0.88838000       0.20152000
    33  H          0.74740000       0.12720000       0.81760000
    34  H          0.25260000       0.87280000       0.18240000
    35  C          0.96232000       0.04243000       0.79938000
    36  C          0.03768000       0.95757000       0.20062000
    37  H          0.86100000       0.01190000       0.81790000
    38  H          0.13900000       0.98810000       0.18210000
    39  C          0.18457000       0.01792000       0.77228000
    40  C          0.81543000       0.98208000       0.22772000
    41  C          0.33198000       0.06462000       0.74428000
    42  C          0.66802000       0.93538000       0.25572000
    43  H          0.48070000       0.04920000       0.72660000
    44  H          0.51930000       0.95080000       0.27340000
    45  C          0.25937000       0.13292000       0.74278000
    46  C          0.74063000       0.86708000       0.25722000
    47  H          0.35940000       0.16320000       0.72330000
    48  H          0.64060000       0.83680000       0.27670000
    49  O          0.26296000       0.95048830       0.77218830
    50  O          0.73704000       0.04951170       0.22781170
    51  H          0.16190000       0.92820000       0.79010000
    52  H          0.83810000       0.07180000       0.20990000
    53  C          0.95143000       0.35202000       0.72428000
    54  C          0.04857000       0.64798000       0.27572000
    55  C          0.10838000       0.38152000       0.75538000
    56  C          0.89162000       0.61848000       0.24462000
    57  H          0.22460000       0.35340000       0.77440000
    58  H          0.77540000       0.64660000       0.22560000
    59  C          0.09778000       0.45142000       0.75908000
    60  C          0.90222000       0.54858000       0.24092000
    61  H          0.20770000       0.46970000       0.77950000
    62  H          0.79230000       0.53030000       0.22050000
    63  C          0.92082000       0.49392000       0.73208000
    64  C          0.07918000       0.50608000       0.26792000
    65  C          0.76182000       0.46613000       0.70108000
    66  C          0.23818000       0.53387000       0.29892000
    67  H          0.64240000       0.49430000       0.68350000
    68  H          0.35760000       0.50570000       0.31650000
    69  C          0.77932000       0.39612000       0.69598000
    70  C          0.22068000       0.60388000       0.30402000
    71  H          0.67510000       0.37810000       0.67340000
    72  H          0.32490000       0.62190000       0.32660000
    73  O          0.91204000       0.56180170       0.73901820
    74  O          0.08796000       0.43819830       0.26098180
    75  H          0.80570000       0.58220000       0.72040000
    76  H          0.19430000       0.41780000       0.27960000
    77  C          0.97923000       0.25192000       0.65718000
    78  C          0.02077000       0.74808000       0.34282000
    79  C          0.13439000       0.27133000       0.60808000
    80  C          0.86561000       0.72867000       0.39192000
    81  H          0.24770000       0.29930000       0.61450000
    82  H          0.75230000       0.70070000       0.38550000
    83  C          0.12409000       0.25023000       0.55017000
    84  C          0.87591000       0.74977000       0.44983000
    85  H          0.23580000       0.26170000       0.51850000
    86  H          0.76420000       0.73830000       0.48150000
    87  C          0.94892000       0.21202000       0.53848000
    88  C          0.05108000       0.78798000       0.46152000
    89  C          0.79172000       0.19213000       0.58688000
    90  C          0.20828000       0.80787000       0.41312000
    91  H          0.67490000       0.16550000       0.58010000
    92  H          0.32510000       0.83450000       0.41990000
    93  C          0.80972000       0.21193000       0.64468000
    94  C          0.19028000       0.78807000       0.35532000
    95  H          0.70390000       0.19800000       0.67690000
    96  H          0.29610000       0.80200000       0.32310000
    97  O          0.93934000       0.19392000       0.48019840
    98  O          0.06066000       0.80608000       0.51980160
    99  H          0.82660000       0.21590000       0.46530000
   100  H          0.17340000       0.78410000       0.53470000
   101  C          0.52633000       0.47412000       0.08272000
   102  C          0.47367000       0.52588000       0.91728000
   103  C          0.32463000       0.50902000       0.10972000
   104  C          0.67537000       0.49098000       0.89028000
   105  H          0.29220000       0.50570000       0.15230000
   106  H          0.70780000       0.49430000       0.84770000
   107  C          0.16833000       0.54952000       0.07312000
   108  C          0.83167000       0.45048000       0.92688000
   109  H          0.03400000       0.57350000       0.09160000
   110  H          0.96600000       0.42650000       0.90840000
   111  C          0.57963000       0.48022000       0.01841190
   112  C          0.42037000       0.51978000       0.98158810
   113  C          0.78613000       0.44622000       0.98978000
   114  C          0.21387000       0.55378000       0.01022000
   115  C          0.68593000       0.42962000       0.12122000
   116  C          0.31407000       0.57038000       0.87878000
   117  N          0.89634000       0.39943180       0.09167170
   118  N          0.10366000       0.60056820       0.90832830
   119  C          0.95523000       0.40502000       0.02842000
   120  C          0.04477000       0.59498000       0.97158000
   121  N         -0.00357000       0.14872000       0.17532000
   122  N          0.00357000       0.85128000       0.82468000
   123  C          0.16988000       0.17933000       0.19352000
   124  C          0.83012000       0.82067000       0.80648000
   125  H          0.27860000       0.15340000       0.21680000
   126  H          0.72140000       0.84660000       0.78320000
   127  C          0.19728000       0.24762000       0.17972000
   128  C          0.80272000       0.75238000       0.82028000
   129  H          0.32030000       0.26680000       0.19390000
   130  H          0.67970000       0.73320000       0.80610000
   131  C          0.03787000       0.28712000       0.14432000
   132  C          0.96213000       0.71288000       0.85568000
   133  C          0.86082000       0.25532000       0.12472000
   134  C          0.13918000       0.74468000       0.87528000
   135  H          0.75210000       0.27960000       0.10050000
   136  H          0.24790000       0.72040000       0.89950000
   137  C          0.84521000       0.18723000       0.14122000
   138  C          0.15479000       0.81277000       0.85878000
   139  H          0.72290000       0.16700000       0.12780000
   140  H          0.27710000       0.83300000       0.87220000
   141  C          0.06737000       0.36182000       0.13082000
   142  C          0.93263000       0.63818000       0.86918000
   143  H          0.05540000       0.38340000       0.16960000
   144  H          0.94460000       0.61660000       0.83040000
   145  H          0.22420000       0.36560000       0.11080000
   146  H          0.77580000       0.63440000       0.88920000
   147  O          0.63904000       0.41802180       0.17617150
   148  O          0.36096000       0.58197820       0.82382850
   149  O          0.14145000       0.37710170       0.00566160
   150  O          0.85855000       0.62289830      -0.00566160
   151  C          0.07057000       0.01682000       0.41582000
   152  C          0.92943000       0.98318000       0.58418000
   153  C          0.91632000       0.97828000       0.39292000
   154  C          0.08368000       0.02172000       0.60708000
   155  H          0.91470000       0.97640000       0.35060000
   156  H          0.08530000       0.02360000       0.64940000
   157  C          0.76452000       0.94238000       0.43292000
   158  C          0.23548000       0.05762000       0.56708000
   159  H          0.66210000       0.91670000       0.41690000
   160  H          0.33790000       0.08330000       0.58310000
   161  C          0.07867000       0.01832000       0.47942000
   162  C          0.92133000       0.98168000       0.52058000
   163  C          0.23727000       0.05582000       0.50432000
   164  C          0.76273000       0.94418000       0.49568000
   165  C          0.22487000       0.05782000       0.37252000
   166  C          0.77513000       0.94218000       0.62748000
   167  N          0.39006000       0.09064190       0.39931170
   168  N          0.60994000       0.90935810       0.60068830
   169  C          0.40307000       0.09282000       0.46192000
   170  C          0.59693000       0.90718000       0.53808000
   171  N          0.38257000       0.33852000       0.31052000
   172  N          0.61743000       0.66148000       0.68948000
   173  C          0.23119000       0.30133000       0.34333000
   174  C          0.76881000       0.69867000       0.65667000
   175  H          0.08290000       0.32270000       0.35560000
   176  H          0.91710000       0.67730000       0.64440000
   177  C          0.27808000       0.23283000       0.36042000
   178  C          0.72192000       0.76717000       0.63958000
   179  H          0.16450000       0.20960000       0.38370000
   180  H          0.83550000       0.79040000       0.61630000
   181  C          0.49477000       0.19942000       0.34242000
   182  C          0.50523000       0.80058000       0.65758000
   183  C          0.65828000       0.23783000       0.30802000
   184  C          0.34172000       0.76217000       0.69198000
   185  H          0.80670000       0.21740000       0.29470000
   186  H          0.19330000       0.78260000       0.70530000
   187  C          0.59629000       0.30623000       0.29422000
   188  C          0.40371000       0.69377000       0.70578000
   189  H          0.70810000       0.33130000       0.27240000
   190  H          0.29190000       0.66870000       0.72760000
   191  C          0.56257000       0.12442000       0.35672000
   192  C          0.43743000       0.87558000       0.64328000
   193  H          0.58470000       0.10170000       0.31840000
   194  H          0.41530000       0.89830000       0.68160000
   195  H          0.71210000       0.11880000       0.37440000
   196  H          0.28790000       0.88120000       0.62560000
   197  O          0.20936000       0.06433180       0.31790150
   198  O          0.79064000       0.93566820       0.68209850
   199  O          0.54946000       0.12348180       0.48124160
   200  O          0.45054000       0.87651820       0.51875840
   201  C          0.31080000       0.58720000       0.53241000
   202  C          0.68920000       0.41280000       0.46759000
   203  H          0.45950000       0.55830000       0.52640000
   204  H          0.54050000       0.44170000       0.47360000
   205  Cl         0.19701300       0.54094000       0.59317000
   206  Cl         0.80298700       0.45906000       0.40683000
   207  Cl         0.41071400       0.64954000       0.54487000
   208  Cl         0.58928600       0.35046000       0.45513000
   209  Cl         0.21820000       0.57654000       0.46547000
   210  Cl         0.78180000       0.42346000       0.53453000
   211  C          0.54618900       0.11714000       0.96486000
   212  C          0.45381100       0.88286000       0.03514000
   213  H          0.58170000       0.16010000       0.94260000
   214  H          0.41830000       0.83990000       0.05740000
   215  Cl         0.40607000       0.07347900       0.91430100
   216  Cl         0.59393000       0.92652100       0.08569900
   217  Cl         0.81237000       0.07435110       0.98201880
   218  Cl         0.18763000       0.92564890       0.01798120
   219  Cl         0.36247000       0.13885140       0.02924120
   220  Cl         0.63753000       0.86114860       0.97075880
