data_HEZLIK
_symmetry_space_group_name_H-M    'P1'
_symmetry_Int_Tables_number       1
loop_
_symmetry_equiv_pos_site_id
_symmetry_equiv_pos_as_xyz
1 x,y,z
_cell_length_a                   11.09286
_cell_length_b                   10.00156
_cell_length_c                   19.01091
_cell_angle_alpha                90.0
_cell_angle_beta                 98.851716
_cell_angle_gamma                90.0
loop_
_atom_site_label
_atom_site_type_symbol
_atom_site_fract_x
_atom_site_fract_y
_atom_site_fract_z
     1  C         -0.00000000       0.53847000       0.75000000
     2  C          0.00000000       0.46153000       0.25000000
     3  C         -0.00000000       0.67447000       0.75000000
     4  C          0.00000000       0.32553000       0.25000000
     5  C          0.90044000       0.45945000       0.77467000
     6  C          0.09956000       0.45945000       0.72533000
     7  C          0.09956000       0.54055000       0.22533000
     8  C          0.90044000       0.54055000       0.27467000
     9  C          0.77875000       0.48785000       0.75047000
    10  C          0.22125000       0.48785000       0.74953000
    11  C          0.22125000       0.51215000       0.24953000
    12  C          0.77875000       0.51215000       0.25047000
    13  H          0.75820000       0.56090000       0.71890000
    14  H          0.24180000       0.56090000       0.78110000
    15  H          0.24180000       0.43910000       0.28110000
    16  H          0.75820000       0.43910000       0.21890000
    17  C          0.68634000       0.41095000       0.77157000
    18  C          0.31366000       0.41095000       0.72843000
    19  C          0.31366000       0.58905000       0.22843000
    20  C          0.68634000       0.58905000       0.27157000
    21  H          0.60340000       0.43120000       0.75410000
    22  H          0.39660000       0.43120000       0.74590000
    23  H          0.39660000       0.56880000       0.24590000
    24  H          0.60340000       0.56880000       0.25410000
    25  C          0.71394000       0.30485000       0.81807000
    26  C          0.28606000       0.30485000       0.68193000
    27  C          0.28606000       0.69515000       0.18193000
    28  C          0.71394000       0.69515000       0.31807000
    29  C          0.83515000       0.27475000       0.84277000
    30  C          0.16485000       0.27475000       0.65723000
    31  C          0.16485000       0.72525000       0.15723000
    32  C          0.83515000       0.72525000       0.34277000
    33  H          0.85520000       0.20260000       0.87500000
    34  H          0.14480000       0.20260000       0.62500000
    35  H          0.14480000       0.79740000       0.12500000
    36  H          0.85520000       0.79740000       0.37500000
    37  C          0.92744000       0.35085000       0.82017000
    38  C          0.07256000       0.35085000       0.67983000
    39  C          0.07256000       0.64915000       0.17983000
    40  C          0.92744000       0.64915000       0.32017000
    41  H          0.01020000       0.32800000       0.83620000
    42  H         -0.01020000       0.32800000       0.66380000
    43  H         -0.01020000       0.67200000       0.16380000
    44  H          0.01020000       0.67200000       0.33620000
    45  O          0.61963000       0.23114000       0.83728000
    46  O          0.38037000       0.23114000       0.66272000
    47  O          0.38037000       0.76886000       0.16272000
    48  O          0.61963000       0.76886000       0.33728000
    49  H          0.64640000       0.15750000       0.85430000
    50  H          0.35360000       0.15750000       0.64570000
    51  H          0.35360000       0.84250000       0.14570000
    52  H          0.64640000       0.84250000       0.35430000
    53  C          0.91674000       0.75445000       0.78837000
    54  C          0.08326000       0.75445000       0.71163000
    55  C          0.08326000       0.24555000       0.21163000
    56  C          0.91674000       0.24555000       0.28837000
    57  C          0.85395000       0.86515000       0.75677000
    58  C          0.14605000       0.86515000       0.74323000
    59  C          0.14605000       0.13485000       0.24323000
    60  C          0.85395000       0.13485000       0.25677000
    61  H          0.86450000       0.89050000       0.71000000
    62  H          0.13550000       0.89050000       0.79000000
    63  H          0.13550000       0.10950000       0.29000000
    64  H          0.86450000       0.10950000       0.21000000
    65  C          0.77625000       0.93875000       0.79237000
    66  C          0.22375000       0.93875000       0.70763000
    67  C          0.22375000       0.06125000       0.20763000
    68  C          0.77625000       0.06125000       0.29237000
    69  H          0.73130000       0.01130000       0.76920000
    70  H          0.26870000       0.01130000       0.73080000
    71  H          0.26870000      -0.01130000       0.23080000
    72  H          0.73130000      -0.01130000       0.26920000
    73  C          0.76405000       0.90675000       0.86157000
    74  C          0.23595000       0.90675000       0.63843000
    75  C          0.23595000       0.09325000       0.13843000
    76  C          0.76405000       0.09325000       0.36157000
    77  C          0.82575000       0.79885000       0.89437000
    78  C          0.17425000       0.79885000       0.60563000
    79  C          0.17425000       0.20115000       0.10563000
    80  C          0.82575000       0.20115000       0.39437000
    81  H          0.81630000       0.77580000       0.94180000
    82  H          0.18370000       0.77580000       0.55820000
    83  H          0.18370000       0.22420000       0.05820000
    84  H          0.81630000       0.22420000       0.44180000
    85  C          0.90175000       0.72335000       0.85827000
    86  C          0.09825000       0.72335000       0.64173000
    87  C          0.09825000       0.27665000       0.14173000
    88  C          0.90175000       0.27665000       0.35827000
    89  H          0.94430000       0.64920000       0.88150000
    90  H          0.05570000       0.64920000       0.61850000
    91  H          0.05570000       0.35080000       0.11850000
    92  H          0.94430000       0.35080000       0.38150000
    93  O          0.68904000      -0.01336000       0.89548000
    94  O          0.31096000      -0.01336000       0.60452000
    95  O          0.31096000       0.01336000       0.10452000
    96  O          0.68904000       0.01336000       0.39548000
    97  H          0.63080000       0.01470000       0.86560000
    98  H          0.36920000       0.01470000       0.63440000
    99  H          0.36920000       0.98530000       0.13440000
   100  H          0.63080000       0.98530000       0.36560000
   101  N          0.61134000       0.81205000       0.12273000
   102  N          0.38866000       0.81205000       0.37727000
   103  N          0.38866000       0.18795000       0.87727000
   104  N          0.61134000       0.18795000       0.62273000
   105  C          0.57815000       0.85776000       0.05613000
   106  C          0.42185000       0.85776000       0.44387000
   107  C          0.42185000       0.14224000       0.94387000
   108  C          0.57815000       0.14224000       0.55613000
   109  H          0.49750000       0.85270000       0.03070000
   110  H          0.50250000       0.85270000       0.46930000
   111  H          0.50250000       0.14730000       0.96930000
   112  H          0.49750000       0.14730000       0.53070000
   113  N          0.67084000       0.91035000       0.03042000
   114  N          0.32916000       0.91035000       0.46958000
   115  N          0.32916000       0.08965000       0.96958000
   116  N          0.67084000       0.08965000       0.53042000
   117  H          0.67070000       0.94680000       0.98820000
   118  H          0.32930000       0.94680000       0.51180000
   119  H          0.32930000       0.05320000       0.01180000
   120  H          0.67070000       0.05320000       0.48820000
   121  C          0.76755000       0.89535000       0.08383000
   122  C          0.23245000       0.89535000       0.41617000
   123  C          0.23245000       0.10465000       0.91617000
   124  C          0.76755000       0.10465000       0.58383000
   125  C          0.73365000       0.83546000       0.14123000
   126  C          0.26635000       0.83546000       0.35877000
   127  C          0.26635000       0.16454000       0.85877000
   128  C          0.73365000       0.16454000       0.64123000
   129  H          0.78360000       0.81410000       0.18500000
   130  H          0.21640000       0.81410000       0.31500000
   131  H          0.21640000       0.18590000       0.81500000
   132  H          0.78360000       0.18590000       0.68500000
   133  Br         0.92183500       0.96325600       0.07479300
   134  Br         0.07816500       0.96325600       0.42520700
   135  Br         0.07816500       0.03674400       0.92520700
   136  Br         0.92183500       0.03674400       0.57479300
   137  C          0.69409000       0.60309000       0.56086000
   138  C          0.30591000       0.60309000       0.93914000
   139  C          0.30591000       0.39691000       0.43914000
   140  C          0.69409000       0.39691000       0.06086000
   141  C          0.70051000       0.72779000       0.58435000
   142  C          0.29949000       0.72779000       0.91565000
   143  C          0.29949000       0.27221000       0.41565000
   144  C          0.70051000       0.27221000       0.08435000
   145  H          0.76620000       0.78370000       0.57640000
   146  H          0.23380000       0.78370000       0.92360000
   147  H          0.23380000       0.21630000       0.42360000
   148  H          0.76620000       0.21630000       0.07640000
   149  C          0.61011200       0.77581100       0.62075000
   150  C          0.38988800       0.77581100       0.87925000
   151  C          0.38988800       0.22418900       0.37925000
   152  C          0.61011200       0.22418900       0.12075000
   153  H          0.61780000       0.86580000       0.63670000
   154  H          0.38220000       0.86580000       0.86330000
   155  H          0.38220000       0.13420000       0.36330000
   156  H          0.61780000       0.13420000       0.13670000
   157  C          0.51518000       0.70891100       0.63526000
   158  C          0.48482000       0.70891100       0.86474000
   159  C          0.48482000       0.29108900       0.36474000
   160  C          0.51518000       0.29108900       0.13526000
   161  H          0.45630000       0.74600000       0.66120000
   162  H          0.54370000       0.74600000       0.83880000
   163  H          0.54370000       0.25400000       0.33880000
   164  H          0.45630000       0.25400000       0.16120000
   165  C          0.50861100       0.57920000       0.60933000
   166  C          0.49138900       0.57920000       0.89067000
   167  C          0.49138900       0.42080000       0.39067000
   168  C          0.50861100       0.42080000       0.10933000
   169  H          0.44100000       0.52540000       0.61700000
   170  H          0.55900000       0.52540000       0.88300000
   171  H          0.55900000       0.47460000       0.38300000
   172  H          0.44100000       0.47460000       0.11700000
   173  C          0.60191200       0.51901000       0.57035000
   174  C          0.39808800       0.51901000       0.92965000
   175  C          0.39808800       0.48099000       0.42965000
   176  C          0.60191200       0.48099000       0.07035000
   177  H          0.59730000       0.42940000       0.55360000
   178  H          0.40270000       0.42940000       0.94640000
   179  H          0.40270000       0.57060000       0.44640000
   180  H          0.59730000       0.57060000       0.05360000
   181  Br         0.82162170       0.53296180       0.51248200
   182  Br         0.17837830       0.53296180       0.98751800
   183  Br         0.17837830       0.46703820       0.48751800
   184  Br         0.82162170       0.46703820       0.01248200
