data_HEZTAH
_symmetry_space_group_name_H-M    'P1'
_symmetry_Int_Tables_number       1
loop_
_symmetry_equiv_pos_site_id
_symmetry_equiv_pos_as_xyz
1 x,y,z
_cell_length_a                   13.7083
_cell_length_b                   4.587912
_cell_length_c                   13.9643
_cell_angle_alpha                90.0
_cell_angle_beta                 112.351
_cell_angle_gamma                90.0
loop_
_atom_site_label
_atom_site_type_symbol
_atom_site_fract_x
_atom_site_fract_y
_atom_site_fract_z
     1  O          0.75000000       0.22715000       0.25000000
     2  O          0.25000000       0.77285000       0.75000000
     3  C          0.75000000       0.49988000       0.25000000
     4  C          0.25000000       0.50012000       0.75000000
     5  N          0.70162000       0.65255000       0.16252000
     6  N          0.79838000       0.65255000       0.33748000
     7  N          0.29838000       0.34745000       0.83748000
     8  N          0.20162000       0.34745000       0.66252000
     9  H          0.66820000       0.56160000       0.10120000
    10  H          0.83180000       0.56160000       0.39880000
    11  H          0.33180000       0.43840000       0.89880000
    12  H          0.16820000       0.43840000       0.60120000
    13  H          0.70020000       0.83460000       0.16120000
    14  H          0.79980000       0.83460000       0.33880000
    15  H          0.29980000       0.16540000       0.83880000
    16  H          0.20020000       0.16540000       0.66120000
    17  O          0.25000000       0.47655000       0.25000000
    18  O          0.75000000       0.52345000       0.75000000
    19  C          0.25000000       0.74917000       0.25000000
    20  C          0.75000000       0.25083000       0.75000000
    21  N          0.28752000       0.90265000       0.33901000
    22  N          0.21248000       0.90265000       0.16099000
    23  N          0.71248000       0.09735000       0.66099000
    24  N          0.78752000       0.09735000       0.83901000
    25  C          0.33792000       0.75615000       0.43812000
    26  C          0.16208000       0.75615000       0.06188000
    27  C          0.66208000       0.24385000       0.56188000
    28  C          0.83792000       0.24385000       0.93812000
    29  C          0.37642000      -0.02975000       0.52702000
    30  C          0.12358000      -0.02975000       0.97298000
    31  C          0.62358000       0.02975000       0.47298000
    32  C          0.87642000       0.02975000       0.02702000
    33  C          0.43302000       0.81705000       0.62982000
    34  C          0.06698000       0.81705000       0.87018000
    35  C          0.56698000       0.18295000       0.37018000
    36  C          0.93302000       0.18295000       0.12982000
    37  C          0.47582000       0.02406000       0.72102000
    38  C          0.02418000       0.02406000       0.77898000
    39  C          0.52418000      -0.02406000       0.27898000
    40  C          0.97582000      -0.02406000       0.22102000
    41  C          0.52522000       0.86165000       0.82332000
    42  C          0.97478000       0.86165000       0.67668000
    43  C          0.47478000       0.13835000       0.17668000
    44  C          0.02522000       0.13835000       0.32332000
    45  C          0.56942000       0.06195000       0.91112000
    46  C          0.93058000       0.06195000       0.58888000
    47  C          0.43058000       0.93805000       0.08888000
    48  C          0.06942000       0.93805000       0.41112000
    49  N          0.60251000       0.22725000       0.97772000
    50  N          0.89749000       0.22725000       0.52228000
    51  N          0.39749000       0.77275000       0.02228000
    52  N          0.10251000       0.77275000       0.47772000
    53  H          0.28820000       0.09060000       0.33720000
    54  H          0.21180000       0.09060000       0.16280000
    55  H          0.71180000       0.90940000       0.66280000
    56  H          0.78820000       0.90940000       0.83720000
    57  H          0.28820000       0.62650000       0.44820000
    58  H          0.21180000       0.62650000       0.05180000
    59  H          0.71180000       0.37350000       0.55180000
    60  H          0.78820000       0.37350000       0.94820000
    61  H          0.39920000       0.64250000       0.43920000
    62  H          0.10080000       0.64250000       0.06080000
    63  H          0.60080000       0.35750000       0.56080000
    64  H          0.89920000       0.35750000       0.93920000
    65  H          0.42220000       0.10950000       0.51420000
    66  H          0.07780000       0.10950000       0.98580000
    67  H          0.57780000       0.89050000       0.48580000
    68  H          0.92220000       0.89050000       0.01420000
    69  H          0.31620000       0.07450000       0.52920000
    70  H          0.18380000       0.07450000       0.97080000
    71  H          0.68380000       0.92550000       0.47080000
    72  H          0.81620000       0.92550000       0.02920000
    73  H          0.49320000       0.70450000       0.62720000
    74  H          0.00680000       0.70450000       0.87280000
    75  H          0.50680000       0.29550000       0.37280000
    76  H         -0.00680000       0.29550000       0.12720000
    77  H          0.38520000       0.68850000       0.64020000
    78  H          0.11480000       0.68850000       0.85980000
    79  H          0.61480000       0.31150000       0.35980000
    80  H          0.88520000       0.31150000       0.14020000
    81  H          0.42120000       0.13550000       0.72320000
    82  H          0.07880000       0.13550000       0.77680000
    83  H          0.57880000       0.86450000       0.27680000
    84  H          0.92120000       0.86450000       0.22320000
    85  H          0.52720000       0.14750000       0.71120000
    86  H          0.97280000       0.14750000       0.78880000
    87  H          0.47280000       0.85250000       0.28880000
    88  H          0.02720000       0.85250000       0.21120000
    89  H          0.47220000       0.74660000       0.83720000
    90  H          0.02780000       0.74660000       0.66280000
    91  H          0.52780000       0.25340000       0.16280000
    92  H          0.97220000       0.25340000       0.33720000
    93  H          0.58320000       0.73650000       0.82320000
    94  H          0.91680000       0.73650000       0.67680000
    95  H          0.41680000       0.26350000       0.17680000
    96  H          0.08320000       0.26350000       0.32320000
