data_HIBKEI
_symmetry_space_group_name_H-M    'P1'
_symmetry_Int_Tables_number       1
loop_
_symmetry_equiv_pos_site_id
_symmetry_equiv_pos_as_xyz
1 x,y,z
_cell_length_a                   7.4242
_cell_length_b                   9.9445
_cell_length_c                   13.5996
_cell_angle_alpha                97.344
_cell_angle_beta                 91.253
_cell_angle_gamma                95.413
loop_
_atom_site_label
_atom_site_type_symbol
_atom_site_fract_x
_atom_site_fract_y
_atom_site_fract_z
     1  Br         0.42492000       0.94711000       0.64271000
     2  Br         0.57508000       0.05289000       0.35729000
     3  Cl         0.78004000       0.38872000       0.96512000
     4  Cl         0.21996000       0.61128000       0.03488000
     5  N          0.88821000       0.28597000       0.11765000
     6  N          0.11179000       0.71403000       0.88235000
     7  N          0.76121000       0.13047000       0.97795000
     8  N          0.23879000       0.86953000       0.02205000
     9  N          0.86221000       0.04337000       0.12415000
    10  N          0.13779000       0.95663000       0.87585000
    11  N         -0.01039000       0.19747000       0.25415000
    12  N          0.01039000       0.80253000       0.74585000
    13  N          0.73041000       0.89927000      -0.00725000
    14  N          0.26959000       0.10073000       0.00725000
    15  C          0.81601400       0.25209000       0.02807000
    16  C          0.18398600       0.74791000       0.97193000
    17  C          0.91311200       0.17149000       0.16326000
    18  C          0.08688800       0.82851000       0.83674000
    19  C          0.78591200       0.02829000       0.03197000
    20  C          0.21408800       0.97171000       0.96803000
    21  C          0.64481300       0.84129000       0.90136000
    22  C          0.35518700       0.15871000       0.09864000
    23  C          0.60481400       0.70119000       0.88727000
    24  C          0.39518600       0.29881000       0.11273000
    25  C          0.52131400       0.63501000       0.80227000
    26  C          0.47868600       0.36499000       0.19773000
    27  C          0.46781300       0.70751000       0.72807000
    28  C          0.53218700       0.29249000       0.27193000
    29  C          0.50271300       0.84639000       0.74286000
    30  C          0.49728700       0.15361000       0.25714000
    31  C          0.58861200       0.91809000       0.82846000
    32  C          0.41138800       0.08191000       0.17154000
    33  H          0.01900000       0.12760000       0.28550000
    34  H         -0.01900000       0.87240000       0.71450000
    35  H          0.01680000       0.28370000       0.28300000
    36  H         -0.01680000       0.71630000       0.71700000
    37  H          0.76870000       0.83740000       0.02930000
    38  H          0.23130000       0.16260000       0.97070000
    39  H          0.63890000       0.64970000       0.93860000
    40  H          0.36110000       0.35030000       0.06140000
    41  H          0.49920000       0.53740000       0.79410000
    42  H          0.50080000       0.46260000       0.20590000
    43  H          0.40800000       0.66170000       0.66800000
    44  H          0.59200000       0.33830000       0.33200000
    45  H          0.60630000       0.01570000       0.83850000
    46  H          0.39370000      -0.01570000       0.16150000
    47  O          0.06749000       0.96096000       0.36104000
    48  O          0.93251000       0.03904000       0.63896000
    49  O          0.03971100       0.47886000       0.34934000
    50  O          0.96028900       0.52114000       0.65066000
    51  O          0.78051000       0.67766000       0.10834000
    52  O          0.21949000       0.32234000       0.89166000
    53  N          0.92551100       0.81727000       0.23615000
    54  N          0.07448900       0.18273000       0.76385000
    55  N          0.91041100       0.57977000       0.22975000
    56  N          0.08958900       0.42023000       0.77025000
    57  C          0.02221300       0.84361000       0.32556000
    58  C          0.97778700       0.15639000       0.67444000
    59  C          0.07031300       0.72398000       0.37566000
    60  C          0.92968700       0.27602000       0.62434000
    61  C          0.00411500       0.58451000       0.31806000
    62  C         -0.00411500       0.41549000       0.68194000
    63  C          0.86541400       0.69019000       0.18617000
    64  C          0.13458600       0.30981000       0.81383000
    65  C          0.27691300       0.73199000       0.38616000
    66  C          0.72308700       0.26801000       0.61384000
    67  C          0.36861500       0.71471000       0.28777000
    68  C          0.63138500       0.28529000       0.71223000
    69  C         -0.01058600       0.73609000       0.47906000
    70  C          0.01058600       0.26391000       0.52094000
    71  C          0.78561500       0.72831100       0.47897000
    72  C          0.21438500       0.27168900       0.52103000
    73  H          0.91880000       0.88210000       0.19610000
    74  H          0.08120000       0.11790000       0.80390000
    75  H          0.87630000       0.49670000       0.19640000
    76  H          0.12370000       0.50330000       0.80360000
    77  H          0.32480000       0.80760000       0.43330000
    78  H          0.67520000       0.19240000       0.56670000
    79  H          0.29610000       0.64930000       0.41270000
    80  H          0.70390000       0.35070000       0.58730000
    81  H          0.49600000       0.71030000       0.29860000
    82  H          0.50400000       0.28970000       0.70140000
    83  H          0.32050000       0.63840000       0.24110000
    84  H          0.67950000       0.36160000       0.75890000
    85  H          0.34940000       0.79780000       0.26180000
    86  H          0.65060000       0.20220000       0.73820000
    87  H          0.04680000       0.81940000       0.51430000
    88  H          0.95320000       0.18060000       0.48570000
    89  H          0.03040000       0.65970000       0.50670000
    90  H          0.96960000       0.34030000       0.49330000
    91  H          0.74300000       0.73370000       0.54530000
    92  H          0.25700000       0.26630000       0.45470000
    93  H          0.75030000       0.80430000       0.44860000
    94  H          0.24970000       0.19570000       0.55140000
    95  H          0.73400000       0.64490000       0.44100000
    96  H          0.26600000       0.35510000       0.55900000
