data_HICWUM
_symmetry_space_group_name_H-M    'P1'
_symmetry_Int_Tables_number       1
loop_
_symmetry_equiv_pos_site_id
_symmetry_equiv_pos_as_xyz
1 x,y,z
_cell_length_a                   9.37801
_cell_length_b                   24.31801
_cell_length_c                   10.35001
_cell_angle_alpha                90.0
_cell_angle_beta                 90.9501
_cell_angle_gamma                90.0
loop_
_atom_site_label
_atom_site_type_symbol
_atom_site_fract_x
_atom_site_fract_y
_atom_site_fract_z
     1  C          0.53152000       0.05736100       0.19312000
     2  C          0.96848000       0.55736100       0.30688000
     3  C          0.46848000       0.94263900       0.80688000
     4  C          0.03152000       0.44263900       0.69312000
     5  C          0.52292000       0.11016100       0.15052000
     6  C          0.97708000       0.61016100       0.34948000
     7  C          0.47708000       0.88983900       0.84948000
     8  C          0.02292000       0.38983900       0.65052000
     9  C          0.39183000       0.13628100       0.19812000
    10  C          0.10817000       0.63628100       0.30188000
    11  C          0.60817000       0.86371900       0.80188000
    12  C          0.89183000       0.36371900       0.69812000
    13  C          0.31573000       0.09219100       0.26502000
    14  C          0.18427000       0.59219100       0.23498000
    15  C          0.68427000       0.90780900       0.73498000
    16  C          0.81573000       0.40780900       0.76502000
    17  C          0.18103000       0.09125120       0.31893000
    18  C          0.31897000       0.59125120       0.18107000
    19  C          0.81897000       0.90874880       0.68107000
    20  C          0.68103000       0.40874880       0.81893000
    21  H          0.12470000       0.12270000       0.32050000
    22  H          0.37530000       0.62270000       0.17950000
    23  H          0.87530000       0.87730000       0.67950000
    24  H          0.62470000       0.37730000       0.82050000
    25  C          0.13283000       0.04223130       0.37023000
    26  C          0.36717000       0.54223130       0.12977000
    27  C          0.86717000       0.95776870       0.62977000
    28  C          0.63283000       0.45776870       0.87023000
    29  H          0.04260000       0.04090000       0.40600000
    30  H          0.45740000       0.54090000       0.09400000
    31  H          0.95740000       0.95910000       0.59400000
    32  H          0.54260000       0.45910000       0.90600000
    33  C          0.21543000      -0.00465130       0.36943000
    34  C          0.28457000       0.49534870       0.13057000
    35  C          0.78457000       0.00465130       0.63057000
    36  C          0.71543000       0.50465130       0.86943000
    37  H          0.18010000       0.96290000       0.40420000
    38  H          0.31990000       0.46290000       0.09580000
    39  H          0.81990000       0.03710000       0.59580000
    40  H          0.68010000       0.53710000       0.90420000
    41  C          0.35143000      -0.00386110       0.31712000
    42  C          0.14857000       0.49613890       0.18288000
    43  C          0.64857000       0.00386110       0.68288000
    44  C          0.85143000       0.50386110       0.81712000
    45  H          0.40790000       0.96470000       0.31750000
    46  H          0.09210000       0.46470000       0.18250000
    47  H          0.59210000       0.03530000       0.68250000
    48  H          0.90790000       0.53530000       0.81750000
    49  C          0.40022000       0.04490100       0.26442000
    50  C          0.09978000       0.54490100       0.23558000
    51  C          0.59978000       0.95509900       0.73558000
    52  C          0.90022000       0.45509900       0.76442000
    53  C          0.35693000       0.18932120       0.18923000
    54  C          0.14307000       0.68932120       0.31077000
    55  C          0.64307000       0.81067880       0.81077000
    56  C          0.85693000       0.31067880       0.68923000
    57  H          0.27510000       0.20220000       0.22870000
    58  H          0.22490000       0.70220000       0.27130000
    59  H          0.72490000       0.79780000       0.77130000
    60  H          0.77510000       0.29780000       0.72870000
    61  H          0.41450000       0.21340000       0.14360000
    62  H          0.08550000       0.71340000       0.35640000
    63  H          0.58550000       0.78660000       0.85640000
    64  H          0.91450000       0.28660000       0.64360000
    65  C          0.62833000       0.13901900       0.06972000
    66  C          0.87167000       0.63901900       0.43028000
    67  C          0.37167000       0.86098100       0.93028000
    68  C          0.12833000       0.36098100       0.56972000
    69  O          0.75233180       0.14999700       0.11260170
    70  O          0.74766820       0.64999700       0.38739830
    71  O          0.24766820       0.85000300       0.88739830
    72  O          0.25233180       0.35000300       0.61260170
    73  N          0.59022000       0.15342800       0.95144810
    74  N          0.90978000       0.65342800       0.54855190
    75  N          0.40978000       0.84657200       0.04855190
    76  N          0.09022000       0.34657200       0.45144810
    77  C          0.68453000       0.18474120       0.86837000
    78  C          0.81547000       0.68474120       0.63163000
    79  C          0.31547000       0.81525880       0.13163000
    80  C          0.18453000       0.31525880       0.36837000
    81  H          0.77200000       0.19250000       0.91430000
    82  H          0.72800000       0.69250000       0.58570000
    83  H          0.22800000       0.80750000       0.08570000
    84  H          0.27200000       0.30750000       0.41430000
    85  H          0.63910000       0.21860000       0.84390000
    86  H          0.86090000       0.71860000       0.65610000
    87  H          0.36090000       0.78140000       0.15610000
    88  H          0.13910000       0.28140000       0.34390000
    89  H          0.70450000       0.16370000       0.79240000
    90  H          0.79550000       0.66370000       0.70760000
    91  H          0.29550000       0.83630000       0.20760000
    92  H          0.20450000       0.33630000       0.29240000
    93  C          0.45263000       0.13854120       0.89167000
    94  C          0.04737000       0.63854120       0.60833000
    95  C          0.54737000       0.86145880       0.10833000
    96  C          0.95263000       0.36145880       0.39167000
    97  H          0.40460000       0.11270000       0.94590000
    98  H          0.09540000       0.61270000       0.55410000
    99  H          0.59540000       0.88730000       0.05410000
   100  H          0.90460000       0.38730000       0.44590000
   101  H          0.46830000       0.12230000       0.80860000
   102  H          0.03170000       0.62230000       0.69140000
   103  H          0.53170000       0.87770000       0.19140000
   104  H          0.96830000       0.37770000       0.30860000
   105  H          0.39500000       0.17090000       0.88140000
   106  H          0.10500000       0.67090000       0.61860000
   107  H          0.60500000       0.82910000       0.11860000
   108  H          0.89500000       0.32910000       0.38140000
   109  C          0.64852000       0.01782900       0.17082000
   110  C          0.85148000       0.51782900       0.32918000
   111  C          0.35148000       0.98217100       0.82918000
   112  C          0.14852000       0.48217100       0.67082000
   113  C          0.70263000       0.01000100       0.04832000
   114  C          0.79737000       0.51000100       0.45168000
   115  C          0.29737000       0.98999900       0.95168000
   116  C          0.20263000       0.48999900       0.54832000
   117  H          0.66430000       0.02950000       0.97870000
   118  H          0.83570000       0.52950000       0.52130000
   119  H          0.33570000       0.97050000       0.02130000
   120  H          0.16430000       0.47050000       0.47870000
   121  C          0.81343000       0.97322890       0.02893000
   122  C          0.68657000       0.47322890       0.47107000
   123  C          0.18657000       0.02677110       0.97107000
   124  C          0.31343000       0.52677110       0.52893000
   125  H          0.84820000       0.96830000       0.94610000
   126  H          0.65180000       0.46830000       0.55390000
   127  H          0.15180000       0.03170000       0.05390000
   128  H          0.34820000       0.53170000       0.44610000
   129  C          0.87343000       0.94360890       0.13143000
   130  C          0.62657000       0.44360890       0.36857000
   131  C          0.12657000       0.05639110       0.86857000
   132  C          0.37343000       0.55639110       0.63143000
   133  C         -0.00767000       0.90275870       0.10954000
   134  C          0.50767000       0.40275870       0.39046000
   135  C          0.00767000       0.09724130       0.89046000
   136  C          0.49233000       0.59724130       0.60954000
   137  H          0.08170000       0.91870000       0.13610000
   138  H          0.41830000       0.41870000       0.36390000
   139  H          0.91830000       0.08130000       0.86390000
   140  H          0.58170000       0.58130000       0.63610000
   141  H         -0.00470000       0.89350000       0.01950000
   142  H          0.50470000       0.39350000       0.48050000
   143  H          0.00470000       0.10650000       0.98050000
   144  H          0.49530000       0.60650000       0.51950000
   145  H          0.97530000       0.87010000       0.15920000
   146  H          0.52470000       0.37010000       0.34080000
   147  H          0.02470000       0.12990000       0.84080000
   148  H          0.47530000       0.62990000       0.65920000
   149  C          0.81963000       0.95211890       0.25303000
   150  C          0.68037000       0.45211890       0.24697000
   151  C          0.18037000       0.04788110       0.74697000
   152  C          0.31963000       0.54788110       0.75303000
   153  H          0.85880000       0.93310000       0.32300000
   154  H          0.64120000       0.43310000       0.17700000
   155  H          0.14120000       0.06690000       0.67700000
   156  H          0.35880000       0.56690000       0.82300000
   157  C          0.70893000       0.98831900       0.27302000
   158  C          0.79107000       0.48831900       0.22698000
   159  C          0.29107000       0.01168100       0.72698000
   160  C          0.20893000       0.51168100       0.77302000
   161  H          0.67410000       0.99310000       0.35590000
   162  H          0.82590000       0.49310000       0.14410000
   163  H          0.32590000       0.00690000       0.64410000
   164  H          0.17410000       0.50690000       0.85590000
   165  C          0.65943000       0.17867100       0.48222000
   166  C          0.84057000       0.67867100       0.01778000
   167  C          0.34057000       0.82132900       0.51778000
   168  C          0.15943000       0.32132900       0.98222000
   169  C          0.61243000       0.23113110       0.50843000
   170  C          0.88757000       0.73113110      -0.00843000
   171  C          0.38757000       0.76886890       0.49157000
   172  C          0.11243000       0.26886890       0.00843000
   173  H          0.67190000       0.26110000       0.49480000
   174  H          0.82810000       0.76110000       0.00520000
   175  H          0.32810000       0.73890000       0.50520000
   176  H          0.17190000       0.23890000      -0.00520000
   177  C          0.47693000       0.23914110       0.55473000
   178  C          0.02307000       0.73914110       0.94527000
   179  C          0.52307000       0.76085890       0.44527000
   180  C          0.97693000       0.26085890       0.05473000
   181  H          0.44670000       0.27460000       0.57380000
   182  H          0.05330000       0.77460000       0.92620000
   183  H          0.55330000       0.72540000       0.42620000
   184  H          0.94670000       0.22540000       0.07380000
   185  C          0.38503000       0.19547120       0.57322000
   186  C          0.11497000       0.69547120       0.92678000
   187  C          0.61497000       0.80452880       0.42678000
   188  C          0.88503000       0.30452880       0.07322000
   189  C          0.43343000       0.14295110       0.54372000
   190  C          0.06657000       0.64295110       0.95628000
   191  C          0.56657000       0.85704890       0.45628000
   192  C          0.93343000       0.35704890       0.04372000
   193  H          0.37280000       0.11310000       0.55410000
   194  H          0.12720000       0.61310000       0.94590000
   195  H          0.62720000       0.88690000       0.44590000
   196  H          0.87280000       0.38690000       0.05410000
   197  C          0.56943000       0.13430110       0.49922000
   198  C          0.93057000       0.63430110       0.00078000
   199  C          0.43057000       0.86569890       0.50078000
   200  C          0.06943000       0.36569890      -0.00078000
   201  H          0.60030000       0.09890000       0.48080000
   202  H          0.89970000       0.59890000       0.01920000
   203  H          0.39970000       0.90110000       0.51920000
   204  H          0.10030000       0.40110000       0.98080000
   205  C          0.23613000       0.20389140       0.62343000
   206  C          0.26387000       0.70389140       0.87657000
   207  C          0.76387000       0.79610860       0.37657000
   208  C          0.73613000       0.29610860       0.12343000
   209  H          0.23390000       0.23650000       0.67560000
   210  H          0.26610000       0.73650000       0.82440000
   211  H          0.76610000       0.76350000       0.32440000
   212  H          0.73390000       0.26350000       0.17560000
   213  H          0.20940000       0.17270000       0.67450000
   214  H          0.29060000       0.67270000       0.82550000
   215  H          0.79060000       0.82730000       0.32550000
   216  H          0.70940000       0.32730000       0.17450000
   217  H          0.17040000       0.20780000       0.55180000
   218  H          0.32960000       0.70780000       0.94820000
   219  H          0.82960000       0.79220000       0.44820000
   220  H          0.67040000       0.29220000       0.05180000
   221  S          0.83768700       0.16657300       0.43729600
   222  S          0.66231300       0.66657300       0.06270400
   223  S          0.16231300       0.83342700       0.56270400
   224  S          0.33768700       0.33342700       0.93729600
   225  O          0.90902000       0.14156900       0.54565180
   226  O          0.59098000       0.64156900       0.95434820
   227  O          0.09098000       0.85843100       0.45434820
   228  O          0.40902000       0.35843100       0.04565180
   229  O          0.89562000       0.21715800       0.39152000
   230  O          0.60438000       0.71715800       0.10848000
   231  O          0.10438000       0.78284200       0.60848000
   232  O          0.39562000       0.28284200       0.89152000
   233  O          0.82627190       0.12427800       0.33140180
   234  O          0.67372810       0.62427800       0.16859820
   235  O          0.17372810       0.87572200       0.66859820
   236  O          0.32627190       0.37572200       0.83140180
   237  H          0.78650000       0.13861800       0.23750000
   238  H          0.71350000       0.63861800       0.26250000
   239  H          0.21350000       0.86138200       0.76250000
   240  H          0.28650000       0.36138200       0.73750000
