data_HIDSAO
_symmetry_space_group_name_H-M    'P1'
_symmetry_Int_Tables_number       1
loop_
_symmetry_equiv_pos_site_id
_symmetry_equiv_pos_as_xyz
1 x,y,z
_cell_length_a                   17.5834
_cell_length_b                   8.6643
_cell_length_c                   11.7073
_cell_angle_alpha                90.0
_cell_angle_beta                 90.0
_cell_angle_gamma                90.0
loop_
_atom_site_label
_atom_site_type_symbol
_atom_site_fract_x
_atom_site_fract_y
_atom_site_fract_z
     1  N          0.51543000       0.25000000       0.19411400
     2  N          0.98457000       0.75000000       0.69411400
     3  N          0.01543000       0.25000000       0.30588600
     4  N          0.48457000       0.75000000       0.80588600
     5  N          0.35837160       0.10193000       0.27812000
     6  N          0.14162840       0.89807000       0.77812000
     7  N          0.85837160       0.39807000       0.22188000
     8  N          0.64162840       0.60193000       0.72188000
     9  N          0.64162840       0.89807000       0.72188000
    10  N          0.85837160       0.10193000       0.22188000
    11  N          0.14162840       0.60193000       0.77812000
    12  N          0.35837160       0.39807000       0.27812000
    13  N          0.32523000       0.25000000       0.53364000
    14  N          0.17477000       0.75000000       0.03364000
    15  N          0.82523000       0.25000000       0.96636000
    16  N          0.67477000       0.75000000       0.46636000
    17  C          0.47882000       0.09925000       0.15993000
    18  C          0.02118000       0.90075000       0.65993000
    19  C          0.97882000       0.40075000       0.34007000
    20  C          0.52118000       0.59925000       0.84007000
    21  C          0.52118000       0.90075000       0.84007000
    22  C          0.97882000       0.09925000       0.34007000
    23  C          0.02118000       0.59925000       0.65993000
    24  C          0.47882000       0.40075000       0.15993000
    25  C          0.43032000       0.02024000       0.24893000
    26  C          0.06968000       0.97976000       0.74893000
    27  C          0.93032000       0.47976000       0.25107000
    28  C          0.56968000       0.52024000       0.75107000
    29  C          0.56968000       0.97976000       0.75107000
    30  C          0.93032000       0.02024000       0.25107000
    31  C          0.06968000       0.52024000       0.74893000
    32  C          0.43032000       0.47976000       0.24893000
    33  C          0.32322000       0.03845000       0.38343000
    34  C          0.17678000       0.96155000       0.88343000
    35  C          0.82322000       0.46155000       0.11657000
    36  C          0.67678000       0.53845000       0.61657000
    37  C          0.67678000       0.96155000       0.61657000
    38  C          0.82322000       0.03845000       0.11657000
    39  C          0.17678000       0.53845000       0.88343000
    40  C          0.32322000       0.46155000       0.38343000
    41  C          0.35792000       0.09934000       0.49313000
    42  C          0.14208000       0.90066000      -0.00687000
    43  C          0.85792000       0.40066000       0.00687000
    44  C          0.64208000       0.59934000       0.50687000
    45  C          0.64208000       0.90066000       0.50687000
    46  C          0.85792000       0.09934000       0.00687000
    47  C          0.14208000       0.59934000      -0.00687000
    48  C          0.35792000       0.40066000       0.49313000
    49  C          0.30202000       0.10415000       0.18143000
    50  C          0.19798000       0.89585000       0.68143000
    51  C          0.80202000       0.39585000       0.31857000
    52  C          0.69798000       0.60415000       0.81857000
    53  C          0.69798000       0.89585000       0.81857000
    54  C          0.80202000       0.10415000       0.31857000
    55  C          0.19798000       0.60415000       0.68143000
    56  C          0.30202000       0.39585000       0.18143000
    57  C          0.25433000       0.25000000       0.18995000
    58  C          0.24567000       0.75000000       0.68995000
    59  C          0.75433000       0.25000000       0.31005000
    60  C          0.74567000       0.75000000       0.81005000
    61  H          0.52440000       0.25000000       0.25250000
    62  H          0.97560000       0.75000000       0.75250000
    63  H          0.02440000       0.25000000       0.24750000
    64  H          0.47560000       0.75000000       0.74750000
    65  H          0.56440000       0.25000000       0.14760000
    66  H          0.93560000       0.75000000       0.64760000
    67  H          0.06440000       0.25000000       0.35240000
    68  H          0.43560000       0.75000000       0.85240000
    69  H          0.45020000       0.11250000       0.08630000
    70  H          0.04980000       0.88750000       0.58630000
    71  H          0.95020000       0.38750000       0.41370000
    72  H          0.54980000       0.61250000       0.91370000
    73  H          0.54980000       0.88750000       0.91370000
    74  H          0.95020000       0.11250000       0.41370000
    75  H          0.04980000       0.61250000       0.58630000
    76  H          0.45020000       0.38750000       0.08630000
    77  H          0.51920000       0.03450000       0.13930000
    78  H          0.98080000       0.96550000       0.63930000
    79  H          0.01920000       0.46550000       0.36070000
    80  H          0.48080000       0.53450000       0.86070000
    81  H          0.48080000       0.96550000       0.86070000
    82  H          0.01920000       0.03450000       0.36070000
    83  H          0.98080000       0.53450000       0.63930000
    84  H          0.51920000       0.46550000       0.13930000
    85  H          0.41620000       0.91350000       0.22230000
    86  H          0.08380000       0.08650000       0.72230000
    87  H          0.91620000       0.58650000       0.27770000
    88  H          0.58380000       0.41350000       0.77770000
    89  H          0.58380000       0.08650000       0.77770000
    90  H          0.91620000       0.91350000       0.27770000
    91  H          0.08380000       0.41350000       0.72230000
    92  H          0.41620000       0.58650000       0.22230000
    93  H          0.45920000       0.00440000       0.31930000
    94  H          0.04080000      -0.00440000       0.81930000
    95  H          0.95920000       0.49560000       0.18070000
    96  H          0.54080000       0.50440000       0.68070000
    97  H          0.54080000      -0.00440000       0.68070000
    98  H          0.95920000       0.00440000       0.18070000
    99  H          0.04080000       0.50440000       0.81930000
   100  H          0.45920000       0.49560000       0.31930000
   101  H          0.32720000       0.92750000       0.38230000
   102  H          0.17280000       0.07250000       0.88230000
   103  H          0.82720000       0.57250000       0.11770000
   104  H          0.67280000       0.42750000       0.61770000
   105  H          0.67280000       0.07250000       0.61770000
   106  H          0.82720000       0.92750000       0.11770000
   107  H          0.17280000       0.42750000       0.88230000
   108  H          0.32720000       0.57250000       0.38230000
   109  H          0.27120000       0.05540000       0.38430000
   110  H          0.22880000       0.94460000       0.88430000
   111  H          0.77120000       0.44460000       0.11570000
   112  H          0.72880000       0.55540000       0.61570000
   113  H          0.72880000       0.94460000       0.61570000
   114  H          0.77120000       0.05540000       0.11570000
   115  H          0.22880000       0.55540000       0.88430000
   116  H          0.27120000       0.44460000       0.38430000
   117  H          0.41320000       0.11140000       0.48830000
   118  H          0.08680000       0.88860000      -0.01170000
   119  H          0.91320000       0.38860000       0.01170000
   120  H          0.58680000       0.61140000       0.51170000
   121  H          0.58680000       0.88860000       0.51170000
   122  H          0.91320000       0.11140000       0.01170000
   123  H          0.08680000       0.61140000      -0.01170000
   124  H          0.41320000       0.38860000       0.48830000
   125  H          0.34520000       0.01740000       0.55430000
   126  H          0.15480000       0.98260000       0.05430000
   127  H          0.84520000       0.48260000       0.94570000
   128  H          0.65480000       0.51740000       0.44570000
   129  H          0.65480000       0.98260000       0.44570000
   130  H          0.84520000       0.01740000       0.94570000
   131  H          0.15480000       0.51740000       0.05430000
   132  H          0.34520000       0.48260000       0.55430000
   133  H          0.27630000       0.25000000       0.53350000
   134  H          0.22370000       0.75000000       0.03350000
   135  H          0.77630000       0.25000000       0.96650000
   136  H          0.72370000       0.75000000       0.46650000
   137  H          0.33350000       0.25000000       0.61070000
   138  H          0.16650000       0.75000000       0.11070000
   139  H          0.83350000       0.25000000       0.88930000
   140  H          0.66650000       0.75000000       0.38930000
   141  H          0.33020000       0.09550000       0.11130000
   142  H          0.16980000       0.90450000       0.61130000
   143  H          0.83020000       0.40450000       0.38870000
   144  H          0.66980000       0.59550000       0.88870000
   145  H          0.66980000       0.90450000       0.88870000
   146  H          0.83020000       0.09550000       0.38870000
   147  H          0.16980000       0.59550000       0.61130000
   148  H          0.33020000       0.40450000       0.11130000
   149  H          0.27420000       0.01540000       0.18730000
   150  H          0.22580000      -0.01540000       0.68730000
   151  H          0.77420000       0.48460000       0.31270000
   152  H          0.72580000       0.51540000       0.81270000
   153  H          0.72580000      -0.01540000       0.81270000
   154  H          0.77420000       0.01540000       0.31270000
   155  H          0.22580000       0.51540000       0.68730000
   156  H          0.27420000       0.48460000       0.18730000
   157  H          0.21830000       0.25000000       0.26540000
   158  H          0.28170000       0.75000000       0.76540000
   159  H          0.71830000       0.25000000       0.23460000
   160  H          0.78170000       0.75000000       0.73460000
   161  H          0.22130000       0.25000000       0.14250000
   162  H          0.27870000       0.75000000       0.64250000
   163  H          0.72130000       0.25000000       0.35750000
   164  H          0.77870000       0.75000000       0.85750000
   165  H          0.37140000       0.25000000       0.28960000
   166  H          0.12860000       0.75000000       0.78960000
   167  H          0.87140000       0.25000000       0.21040000
   168  H          0.62860000       0.75000000       0.71040000
   169  Cl         0.14004800       0.75000000       0.33820100
   170  Cl         0.35995200       0.25000000       0.83820100
   171  Cl         0.64004800       0.75000000       0.16179900
   172  Cl         0.85995200       0.25000000       0.66179900
   173  O          0.14539160       0.61463000       0.26642000
   174  O          0.35460840       0.38537000       0.76642000
   175  O          0.64539160       0.88537000       0.23358000
   176  O          0.85460840       0.11463000       0.73358000
   177  O          0.85460840       0.38537000       0.73358000
   178  O          0.64539160       0.61463000       0.23358000
   179  O          0.35460840       0.11463000       0.76642000
   180  O          0.14539160       0.88537000       0.26642000
   181  O          0.06852000       0.75000000       0.39773000
   182  O          0.43148000       0.25000000       0.89773000
   183  O          0.56852000       0.75000000       0.10227000
   184  O          0.93148000       0.25000000       0.60227000
   185  O          0.20093000       0.75000000       0.41953000
   186  O          0.29907000       0.25000000       0.91953000
   187  O          0.70093000       0.75000000       0.08047000
   188  O          0.79907000       0.25000000       0.58047000
   189  Br         0.05482300       0.25000000       0.03270500
   190  Br         0.44517700       0.75000000       0.53270500
   191  Br         0.55482300       0.25000000       0.46729500
   192  Br         0.94517700       0.75000000       0.96729500
   193  Br         0.14118300       0.25000000       0.50513500
   194  Br         0.35881700       0.75000000       0.00513500
   195  Br         0.64118300       0.25000000      -0.00513500
   196  Br         0.85881700       0.75000000       0.49486500
