data_HIGMET
_symmetry_space_group_name_H-M    'P1'
_symmetry_Int_Tables_number       1
loop_
_symmetry_equiv_pos_site_id
_symmetry_equiv_pos_as_xyz
1 x,y,z
_cell_length_a                   8.34516
_cell_length_b                   21.671015
_cell_length_c                   8.47967
_cell_angle_alpha                90.0
_cell_angle_beta                 115.5975
_cell_angle_gamma                90.0
loop_
_atom_site_label
_atom_site_type_symbol
_atom_site_fract_x
_atom_site_fract_y
_atom_site_fract_z
     1  Br         0.94611110       0.39683400       0.68083120
     2  Br         0.05388890       0.89683400       0.31916880
     3  C          0.59131200       0.47704000       0.03291200
     4  C          0.40868800       0.97704000       0.96708800
     5  Br         0.35299110       0.44425500       0.90723110
     6  Br         0.64700890       0.94425500       0.09276890
     7  Br         0.73663110       0.45156500       0.91286120
     8  Br         0.26336890       0.95156500       0.08713880
     9  Br         0.70284110       0.44672500       0.27296110
    10  Br         0.29715890       0.94672500       0.72703890
    11  Br         0.58184160       0.56637500       0.03585170
    12  Br         0.41815840       0.06637500       0.96414830
    13  C          0.93380000       0.56927000       0.69620000
    14  C          0.06620000       0.06927000       0.30380000
    15  H          0.01860000       0.57520000       0.64370000
    16  H         -0.01860000       0.07520000       0.35630000
    17  H          0.91360000       0.52440000       0.69980000
    18  H          0.08640000       0.02440000       0.30020000
    19  Cl         0.73253000       0.60542000       0.56407000
    20  Cl         0.26747000       0.10542000       0.43593000
    21  Cl         0.02675000       0.59882180       0.90875000
    22  Cl         0.97325000       0.09882180       0.09125000
    23  N          0.20549000       0.32313000       0.33349000
    24  N          0.79451000       0.82313000       0.66651000
    25  C          0.24651200       0.38614000       0.28441100
    26  C          0.75348800       0.88614000       0.71558900
    27  H          0.17140000       0.39280000       0.15810000
    28  H          0.82860000       0.89280000       0.84190000
    29  H          0.37200000       0.38660000       0.30270000
    30  H          0.62800000       0.88660000       0.69730000
    31  C          0.21761400       0.43965000       0.38561300
    32  C          0.78238600       0.93965000       0.61438700
    33  H          0.29400000       0.43430000       0.51220000
    34  H          0.70600000       0.93430000       0.48780000
    35  H          0.09220000       0.44030000       0.36740000
    36  H          0.90780000       0.94030000       0.63260000
    37  C          0.26321900       0.50045000       0.32211900
    38  C          0.73678100       0.00045000       0.67788100
    39  H          0.39030000       0.49990000       0.34590000
    40  H          0.60970000      -0.00010000       0.65410000
    41  H          0.19220000       0.50370000       0.19400000
    42  H          0.80780000       0.00370000       0.80600000
    43  C          0.22820000       0.55616000       0.40820000
    44  C          0.77180000       0.05616000       0.59180000
    45  H          0.25970000       0.59360000       0.36300000
    46  H          0.74030000       0.09360000       0.63700000
    47  H          0.10220000       0.55750000       0.38300000
    48  H          0.89780000       0.05750000       0.61700000
    49  H          0.30040000       0.55370000       0.53500000
    50  H          0.69960000       0.05370000       0.46500000
    51  C          0.25741200       0.27494000       0.23271100
    52  C          0.74258800       0.77494000       0.76728900
    53  H          0.25690000       0.23390000       0.28400000
    54  H          0.74310000       0.73390000       0.71600000
    55  H          0.38080000       0.28340000       0.25120000
    56  H          0.61920000       0.78340000       0.74880000
    57  C          0.14051200       0.27135000       0.03571200
    58  C          0.85948800       0.77135000       0.96428800
    59  H          0.01870000       0.25850000       0.01360000
    60  H         -0.01870000       0.75850000      -0.01360000
    61  H          0.13350000       0.31230000      -0.01800000
    62  H          0.86650000       0.81230000       0.01800000
    63  C          0.21971300       0.22485000       0.95508700
    64  C          0.78028700       0.72485000       0.04491300
    65  H          0.24840000       0.18620000       0.02440000
    66  H          0.75160000       0.68620000       0.97560000
    67  H          0.33140000       0.24150000       0.95810000
    68  H          0.66860000       0.74150000       0.04190000
    69  C          0.09011600       0.21066000       0.76608600
    70  C          0.90988400       0.71066000       0.23391400
    71  H          0.14390000       0.18060000       0.71690000
    72  H          0.85610000       0.68060000       0.28310000
    73  H         -0.01980000       0.19340000       0.76320000
    74  H          0.01980000       0.69340000       0.23680000
    75  H          0.06310000       0.24860000       0.69700000
    76  H          0.93690000       0.74860000       0.30300000
    77  C          0.31011100       0.31024000       0.52861100
    78  C          0.68988900       0.81024000       0.47138900
    79  H          0.28400000       0.26750000       0.55210000
    80  H          0.71600000       0.76750000       0.44790000
    81  H          0.26710000       0.33850000       0.59380000
    82  H          0.73290000       0.83850000       0.40620000
    83  C          0.51251100       0.31755000       0.60031200
    84  C          0.48748900       0.81755000       0.39968800
    85  H          0.55490000       0.29620000       0.52210000
    86  H          0.44510000       0.79620000       0.47790000
    87  H          0.54320000       0.36180000       0.60430000
    88  H          0.45680000       0.86180000       0.39570000
    89  C          0.60291100       0.29005000       0.78351200
    90  C          0.39708900       0.79005000       0.21648800
    91  H          0.72770000       0.30430000       0.83950000
    92  H          0.27230000       0.80430000       0.16050000
    93  H          0.54300000       0.30590000       0.85370000
    94  H          0.45700000       0.80590000       0.14630000
    95  C          0.60131600       0.21985000       0.78811500
    96  C          0.39868400       0.71985000       0.21188500
    97  H          0.66150000       0.20560000       0.90960000
    98  H          0.33850000       0.70560000       0.09040000
    99  H          0.47820000       0.20500000       0.73600000
   100  H          0.52180000       0.70500000       0.26400000
   101  H          0.66330000       0.20350000       0.72170000
   102  H          0.33670000       0.70350000       0.27830000
   103  C          0.00761100       0.31924000       0.29121200
   104  C         -0.00761100       0.81924000       0.70878800
   105  H         -0.01530000       0.34670000       0.37250000
   106  H          0.01530000       0.84670000       0.62750000
   107  H          0.93790000       0.33510000       0.17140000
   108  H          0.06210000       0.83510000       0.82860000
   109  C          0.93968800       0.25494000       0.30291200
   110  C          0.06031200       0.75494000       0.69708800
   111  H          0.93750000       0.22930000       0.20530000
   112  H          0.06250000       0.72930000       0.79470000
   113  H          0.02180000       0.23520000       0.41390000
   114  H         -0.02180000       0.73520000       0.58610000
   115  C          0.75508800       0.25755000       0.29481300
   116  C          0.24491200       0.75755000       0.70518700
   117  H          0.67190000       0.27540000       0.18150000
   118  H          0.32810000       0.77540000       0.81850000
   119  H          0.75610000       0.28460000       0.38920000
   120  H          0.24390000       0.78460000       0.61080000
   121  C          0.69098800       0.19325000       0.31461400
   122  C          0.30901200       0.69325000       0.68538600
   123  H          0.57140000       0.19620000       0.30890000
   124  H          0.42860000       0.69620000       0.69110000
   125  H          0.68810000       0.16660000       0.22000000
   126  H          0.31190000       0.66660000       0.78000000
   127  H          0.77230000       0.17570000       0.42750000
   128  H          0.22770000       0.67570000       0.57250000
