data_HIGVOL
_symmetry_space_group_name_H-M    'P1'
_symmetry_Int_Tables_number       1
loop_
_symmetry_equiv_pos_site_id
_symmetry_equiv_pos_as_xyz
1 x,y,z
_cell_length_a                   9.350417
_cell_length_b                   9.526617
_cell_length_c                   10.9932
_cell_angle_alpha                93.7663
_cell_angle_beta                 94.7963
_cell_angle_gamma                100.2683
loop_
_atom_site_label
_atom_site_type_symbol
_atom_site_fract_x
_atom_site_fract_y
_atom_site_fract_z
     1  C          0.81081100       0.29579000       0.80802000
     2  C          0.18918900       0.70421000       0.19198000
     3  H          0.83320000       0.29230000       0.72730000
     4  H          0.16680000       0.70770000       0.27270000
     5  C          0.92351000       0.31671000       0.90671000
     6  C          0.07649000       0.68329000       0.09329000
     7  H          0.02040000       0.32630000       0.88990000
     8  H          0.97960000       0.67370000       0.11010000
     9  C          0.89239000       0.32261000       0.02278000
    10  C          0.10761000       0.67739000       0.97722000
    11  H          0.96690000       0.33920000       0.08640000
    12  H          0.03310000       0.66080000       0.91360000
    13  C          0.74798000       0.30388000       0.04747000
    14  C          0.25202000       0.69612000       0.95253000
    15  C          0.63539000       0.28499000       0.95483000
    16  C          0.36461000       0.71501000       0.04517000
    17  H          0.53880000       0.27530000       0.97300000
    18  H          0.46120000       0.72470000       0.02700000
    19  C          0.66861000       0.28079000       0.83513000
    20  C          0.33139000       0.71921000       0.16487000
    21  H          0.59370000       0.26750000       0.77200000
    22  H          0.40630000       0.73250000       0.22800000
    23  C          0.70161500       0.08091000       0.23039000
    24  C          0.29838500       0.91909000       0.76961000
    25  F          0.61791000       0.00927000       0.13658000
    26  F          0.38209000      -0.00927000       0.86342000
    27  F          0.83251000       0.05678000       0.20451000
    28  F          0.16749000       0.94322000       0.79549000
    29  F          0.67011800       0.03019000       0.32559000
    30  F          0.32988200       0.96981000       0.67441000
    31  I          0.69530600       0.31187500       0.23087400
    32  I          0.30469400       0.68812500       0.76912600
    33  C          0.25691100       0.20191000       0.08077000
    34  C          0.74308900       0.79809000       0.91923000
    35  H          0.24240000       0.18690000      -0.00430000
    36  H          0.75760000       0.81310000       0.00430000
    37  C          0.28361000       0.33511000       0.13488000
    38  C          0.71639000       0.66489000       0.86512000
    39  H          0.28850000       0.41200000       0.08650000
    40  H          0.71150000       0.58800000       0.91350000
    41  C          0.30409000       0.36139000       0.26117000
    42  C          0.69591000       0.63861000       0.73883000
    43  H          0.32280000       0.45460000       0.29740000
    44  H          0.67720000       0.54540000       0.70260000
    45  C          0.29601000       0.24759000       0.33128000
    46  C          0.70399000       0.75241000       0.66872000
    47  C          0.26951300       0.10899000       0.28208000
    48  C          0.73048700       0.89101000       0.71792000
    49  H          0.26390000       0.03320000       0.33170000
    50  H          0.73610000       0.96680000       0.66830000
    51  C          0.25091400       0.08421000       0.15289000
    52  C          0.74908600       0.91579000       0.84711000
    53  H          0.23490000      -0.00860000       0.11580000
    54  H          0.76510000       0.00860000       0.88420000
    55  C          0.08251400       0.27111800       0.52151200
    56  C          0.91748600       0.72888200       0.47848800
    57  Cl         0.62443000       0.29853000       0.50272190
    58  Cl         0.37557000       0.70147000       0.49727810
    59  F          0.02119000       0.25320000       0.41851000
    60  F          0.97881000       0.74680000       0.58149000
    61  F          0.05099000       0.38961100       0.57631000
    62  F          0.94901000       0.61038900       0.42369000
    63  F          0.03511000       0.17941100       0.59661300
    64  F          0.96489000       0.82058900       0.40338700
    65  I          0.32367600       0.28963600       0.52420400
    66  I          0.67632400       0.71036400       0.47579600
    67  Cl         0.68773000       0.60432000       0.19984180
    68  Cl         0.31227000       0.39568000       0.80015820
