data_HILJAP
_symmetry_space_group_name_H-M    'P1'
_symmetry_Int_Tables_number       1
loop_
_symmetry_equiv_pos_site_id
_symmetry_equiv_pos_as_xyz
1 x,y,z
_cell_length_a                   9.3395
_cell_length_b                   4.2372
_cell_length_c                   20.0171
_cell_angle_alpha                90.0
_cell_angle_beta                 90.3268
_cell_angle_gamma                90.0
loop_
_atom_site_label
_atom_site_type_symbol
_atom_site_fract_x
_atom_site_fract_y
_atom_site_fract_z
     1  N          0.22143000       0.38227000       0.41174130
     2  N          0.77857000       0.88227000       0.08825870
     3  N          0.77857000       0.61773000       0.58825870
     4  N          0.22143000       0.11773000       0.91174130
     5  C          0.35494000       0.38569000       0.38986150
     6  C          0.64506000       0.88569000       0.11013850
     7  C          0.64506000       0.61431000       0.61013850
     8  C          0.35494000       0.11431000       0.88986150
     9  H          0.37420000       0.49110000       0.35020000
    10  H          0.62580000      -0.00890000       0.14980000
    11  H          0.62580000       0.50890000       0.64980000
    12  H          0.37420000       0.00890000       0.85020000
    13  C          0.46603000       0.24158000       0.42282140
    14  C          0.53397000       0.74158000       0.07717860
    15  C          0.53397000       0.75842000       0.57717860
    16  C          0.46603000       0.25842000       0.92282140
    17  H          0.55820000       0.25280000       0.40570000
    18  H          0.44180000       0.75280000       0.09430000
    19  H          0.44180000       0.74720000       0.59430000
    20  H          0.55820000       0.24720000       0.90570000
    21  C          0.44123000       0.07926000       0.48156120
    22  C          0.55877000       0.57926000       0.01843880
    23  C          0.55877000       0.92074000       0.51843880
    24  C          0.44123000       0.42074000       0.98156120
    25  C          0.30153000       0.07729000       0.50414170
    26  C          0.69847000       0.57729000      -0.00414170
    27  C          0.69847000       0.92271000       0.49585830
    28  C          0.30153000       0.42271000       0.00414170
    29  H          0.27880000      -0.02600000       0.54370000
    30  H          0.72120000       0.47400000       0.95630000
    31  H          0.72120000       0.02600000       0.45630000
    32  H          0.27880000       0.52600000       0.04370000
    33  C          0.19663000       0.22741000       0.46813180
    34  C          0.80337000       0.72741000       0.03186820
    35  C          0.80337000       0.77259000       0.53186820
    36  C          0.19663000       0.27259000       0.96813180
    37  H          0.10330000       0.22060000       0.48400000
    38  H          0.89670000       0.72060000       0.01600000
    39  H          0.89670000       0.77940000       0.51600000
    40  H          0.10330000       0.27940000       0.98400000
    41  O          0.13753000       0.85933000       0.12009120
    42  O          0.86247000       0.35933000       0.37990880
    43  O          0.86247000       0.14067000       0.87990880
    44  O          0.13753000       0.64067000       0.62009120
    45  O          0.96528000       0.15127000       0.16493140
    46  O          0.03472000       0.65127000       0.33506860
    47  O          0.03472000       0.84873000       0.83506860
    48  O          0.96528000       0.34873000       0.66493140
    49  Cl         0.35143800      -0.01012000       0.22660500
    50  Cl         0.64856200       0.48988000       0.27339500
    51  Cl         0.64856200       0.01012000       0.77339500
    52  Cl         0.35143800       0.51012000       0.72660500
    53  C          0.18163000       0.16578000       0.21829170
    54  C          0.81837000       0.66578000       0.28170830
    55  C          0.81837000       0.83422000       0.78170830
    56  C          0.18163000       0.33422000       0.71829170
    57  H          0.12880000       0.13270000       0.25930000
    58  H          0.87120000       0.63270000       0.24070000
    59  H          0.87120000       0.86730000       0.74070000
    60  H          0.12880000       0.36730000       0.75930000
    61  H          0.19390000       0.39140000       0.21250000
    62  H          0.80610000       0.89140000       0.28750000
    63  H          0.80610000       0.60860000       0.78750000
    64  H          0.19390000       0.10860000       0.71250000
    65  C          0.09483000       0.04046000       0.16089140
    66  C          0.90517000       0.54046000       0.33910860
    67  C          0.90517000       0.95954000       0.83910860
    68  C          0.09483000       0.45954000       0.66089140
    69  H          0.91850000       0.09311000       0.13520000
    70  H          0.08150000       0.59311000       0.36480000
    71  H          0.08150000       0.90689000       0.86480000
    72  H          0.91850000       0.40689000       0.63520000
