data_HILKUL
_symmetry_space_group_name_H-M    'P1'
_symmetry_Int_Tables_number       1
loop_
_symmetry_equiv_pos_site_id
_symmetry_equiv_pos_as_xyz
1 x,y,z
_cell_length_a                   3.85142
_cell_length_b                   12.25069
_cell_length_c                   18.202413
_cell_angle_alpha                105.9937
_cell_angle_beta                 91.9846
_cell_angle_gamma                90.0546
loop_
_atom_site_label
_atom_site_type_symbol
_atom_site_fract_x
_atom_site_fract_y
_atom_site_fract_z
     1  Cl         0.42085120       0.39429400       0.41278300
     2  Cl         0.57914880       0.60570600       0.58721700
     3  O          0.63223000       0.91132900       0.21105800
     4  O          0.36777000       0.08867100       0.78894200
     5  N          0.01154000       0.17589120       0.14206900
     6  N         -0.01154000       0.82410880       0.85793100
     7  H          0.08487200       0.23201600       0.12683500
     8  H          0.91512800       0.76798400       0.87316500
     9  C          0.20474000       0.27606140       0.27044110
    10  C          0.79526000       0.72393860       0.72955890
    11  H          0.28916500       0.33787200       0.25386500
    12  H          0.71083500       0.66212800       0.74613500
    13  C          0.75254000      -0.00843140       0.18844100
    14  C          0.24746000       0.00843140       0.81155900
    15  C          0.23294000       0.27717140       0.34590110
    16  C          0.76706000       0.72282860       0.65409890
    17  C          0.04704000       0.18076140       0.21812100
    18  C          0.95296000       0.81923860       0.78187900
    19  C          0.11115000       0.18733150       0.37272100
    20  C          0.88885000       0.81266850       0.62727900
    21  H          0.13551300       0.19042600       0.42537600
    22  H          0.86448700       0.80957400       0.57462400
    23  C          0.73765000      -0.00612150       0.11057110
    24  C          0.26235000       0.00612150       0.88942890
    25  H          0.63884900       0.93150800       0.07225500
    26  H          0.36115100       0.06849200       0.92774500
    27  C          0.86565000       0.08588150       0.09086110
    28  C          0.13435000       0.91411850       0.90913890
    29  H          0.85025900       0.08590300       0.03866600
    30  H          0.14974100       0.91409700       0.96133400
    31  C          0.91994000       0.08953140       0.24309100
    32  C          0.08006000       0.91046860       0.75690900
    33  C          0.95675000       0.09534150       0.32142110
    34  C          0.04325000       0.90465850       0.67857890
    35  H          0.87280800       0.03433700       0.33893400
    36  H          0.12719200       0.96566300       0.66106600
    37  Cl         0.34195130       0.86614400       0.46658300
    38  Cl         0.65804870       0.13385600       0.53341700
    39  O          0.71027000       0.43743100       0.18059700
    40  O          0.28973000       0.56256900       0.81940300
    41  H          0.62374800       0.39807000       0.13248700
    42  H          0.37625200       0.60193000       0.86751300
    43  N          0.20954000       0.73065120       0.17747900
    44  N          0.79046000       0.26934880       0.82252100
    45  H          0.32028800       0.79123700       0.17657800
    46  H          0.67971200       0.20876300       0.82342200
    47  C          0.20685000       0.76715150       0.38258100
    48  C          0.79315000       0.23284850       0.61741900
    49  C          0.09745000       0.65907150       0.11176100
    50  C          0.90255000       0.34092850       0.88823900
    51  H          0.13925100       0.67663800       0.06513800
    52  H          0.86074900       0.32336200       0.93486200
    53  C          0.26324000       0.79104140       0.31476100
    54  C          0.73676000       0.20895860       0.68523900
    55  H          0.37323400       0.85999400       0.31369600
    56  H          0.62676600       0.14000600       0.68630400
    57  C          0.04485000       0.66578150       0.38655110
    58  C          0.95515000       0.33421850       0.61344890
    59  H          0.01231600       0.65151700       0.43459000
    60  H         -0.01231600       0.34848300       0.56541000
    61  C         -0.01614000       0.60878140       0.24840100
    62  C          0.01614000       0.39121860       0.75159900
    63  C          0.15314000       0.71027140       0.24660100
    64  C          0.84686000       0.28972860       0.75339900
    65  C          0.93485000       0.58823150       0.32015110
    66  C          0.06515000       0.41176850       0.67984890
    67  H          0.82456300       0.51982200       0.32224800
    68  H          0.17543700       0.48017800       0.67775200
    69  C          0.92195000       0.56013140       0.10970100
    70  C          0.07805000       0.43986860       0.89029900
    71  H          0.83849000       0.51130200       0.06226200
    72  H          0.16151000       0.48869800       0.93773800
    73  C          0.86796000       0.53220140       0.17753100
    74  C          0.13204000       0.46779860       0.82246900
    75  Cl         0.39010110       0.30100300       0.03816200
    76  Cl         0.60989890       0.69899700       0.96183800
