data_HILLET
_symmetry_space_group_name_H-M    'P1'
_symmetry_Int_Tables_number       1
loop_
_symmetry_equiv_pos_site_id
_symmetry_equiv_pos_as_xyz
1 x,y,z
_cell_length_a                   9.7413
_cell_length_b                   11.8153
_cell_length_c                   15.4263
_cell_angle_alpha                91.802
_cell_angle_beta                 107.142
_cell_angle_gamma                90.042
loop_
_atom_site_label
_atom_site_type_symbol
_atom_site_fract_x
_atom_site_fract_y
_atom_site_fract_z
     1  I          0.72234700       0.77143400       0.88197500
     2  I          0.27765300       0.22856600       0.11802500
     3  I          0.70209600       0.88999500       0.04868400
     4  I          0.29790400       0.11000500       0.95131600
     5  I          0.66981800       0.00311600       0.21104500
     6  I          0.33018200      -0.00311600       0.78895500
     7  I          0.65083600       0.24326500       0.35924400
     8  I          0.34916400       0.75673500       0.64075600
     9  I          0.65830600       0.35360500       0.52226400
    10  I          0.34169400       0.64639500       0.47773600
    11  I          0.66507700       0.47759600       0.70756400
    12  I          0.33492300       0.52240400       0.29243600
    13  I          0.36622700       0.38727500       0.70336400
    14  I          0.63377300       0.61272500       0.29663600
    15  I          0.09286800       0.31451600       0.70465500
    16  I          0.90713200       0.68548400       0.29534500
    17  N          0.13126000       0.19515000       0.38844000
    18  N          0.86874000       0.80485000       0.61156000
    19  C          0.29528000       0.21117000       0.42706000
    20  C          0.70472000       0.78883000       0.57294000
    21  H          0.33258000       0.24487000       0.38196000
    22  H          0.66742000       0.75513000       0.61804000
    23  H          0.31718000       0.26217000       0.47996000
    24  H          0.68282000       0.73783000       0.52004000
    25  N          0.36227000       0.10466000       0.45155000
    26  N          0.63773000       0.89534000       0.54845000
    27  C          0.33069000       0.02779000       0.37217000
    28  C          0.66931000       0.97221000       0.62783000
    29  H          0.37929000       0.95641000       0.38907000
    30  H          0.62071000       0.04359000       0.61093000
    31  H          0.36669000       0.06029000       0.32607000
    32  H          0.63331000       0.93971000       0.67393000
    33  N          0.17328000       0.00647000       0.33455000
    34  N          0.82672000      -0.00647000       0.66545000
    35  C          0.11969000       0.95973000       0.40656000
    36  C          0.88031000       0.04027000       0.59344000
    37  H          0.01679000       0.94713000       0.38306000
    38  H         -0.01679000       0.05287000       0.61694000
    39  H          0.16439000       0.88723000       0.42386000
    40  H          0.83561000       0.11277000       0.57614000
    41  N          0.15017000       0.03565000       0.48634000
    42  N          0.84983000       0.96435000       0.51366000
    43  C          0.30588000       0.05577000       0.52096000
    44  C          0.69412000       0.94423000       0.47904000
    45  H          0.35368000       0.98463000       0.53986000
    46  H          0.64632000       0.01537000       0.46014000
    47  H          0.32658000       0.10697000       0.57376000
    48  H          0.67342000       0.89303000       0.42624000
    49  C          0.07848000       0.14016000       0.46075000
    50  C          0.92152000       0.85984000       0.53925000
    51  H          0.09638000       0.19096000       0.51365000
    52  H          0.90362000       0.80904000       0.48635000
    53  H          0.97578000       0.12646000       0.43765000
    54  H          0.02422000       0.87354000       0.56235000
    55  C          0.10409000       0.10978000       0.30835000
    56  C          0.89591000       0.89022000       0.69165000
    57  H          0.00159000       0.09618000       0.28325000
    58  H         -0.00159000       0.90382000       0.71675000
    59  H          0.13869000       0.14138000       0.26125000
    60  H          0.86131000       0.85862000       0.73875000
    61  C          0.05521000       0.30307000       0.35616000
    62  C          0.94479000       0.69693000       0.64384000
    63  H          0.10041000       0.33757000       0.31516000
    64  H          0.89959000       0.66243000       0.68484000
    65  H          0.95641000       0.28527000       0.32216000
    66  H          0.04359000       0.71473000       0.67784000
    67  C          0.05591100       0.38698000       0.43097000
    68  C          0.94408900       0.61302000       0.56903000
    69  H          0.00561100       0.45378000       0.40557000
    70  H         -0.00561100       0.54622000       0.59443000
    71  H          0.15321100       0.40678000       0.46407000
    72  H          0.84678900       0.59322000       0.53593000
    73  H          0.00911100       0.35438000       0.47117000
    74  H         -0.00911100       0.64562000       0.52883000
    75  N          0.77161000       0.27927000       0.97255000
    76  N          0.22839000       0.72073000       0.02745000
    77  C          0.61981500       0.31511600       0.96541100
    78  C          0.38018500       0.68488400       0.03458900
    79  H          0.57641500       0.34851600       0.90711100
    80  H          0.42358500       0.65148400       0.09288900
    81  H          0.56251500       0.24961600       0.97001100
    82  H          0.43748500       0.75038400       0.02998900
    83  N          0.62331100       0.39411200       0.03561100
    84  N          0.37668900       0.60588800       0.96438900
    85  C          0.68371300       0.34361000       0.12359000
    86  C          0.31628700       0.65639000       0.87641000
    87  H          0.68101300       0.39791000       0.17149000
    88  H          0.31898700       0.60209000       0.82851000
    89  H          0.62651300       0.27801000       0.12799000
    90  H          0.37348700       0.72199000       0.87201000
    91  N          0.83059000       0.30977000       0.13495000
    92  N          0.16941000       0.69023000       0.86505000
    93  C          0.91471100       0.40988000       0.12696000
    94  C          0.08528900       0.59012000       0.87304000
    95  H          0.91471100       0.46478000       0.17496000
    96  H          0.08528900       0.53522000       0.82504000
    97  H          0.01341100       0.38798000       0.13436000
    98  H         -0.01341100       0.61202000       0.86564000
    99  N          0.85678000       0.46156000       0.03946000
   100  N          0.14322000       0.53844000       0.96054000
   101  C          0.70821100       0.49481000       0.02959000
   102  C          0.29178900       0.50519000       0.97041000
   103  H          0.66761100       0.52931000       0.97149000
   104  H          0.33238900       0.47069000       0.02851000
   105  H          0.70601100       0.55001000       0.07709000
   106  H          0.29398900       0.44999000       0.92291000
   107  C          0.86351000       0.38239000       0.96926000
   108  C          0.13649000       0.61761000       0.03074000
   109  H          0.96221000       0.35989000       0.97776000
   110  H          0.03779000       0.64011000       0.02224000
   111  H          0.82841000       0.41679000       0.91066000
   112  H          0.17159000       0.58321000       0.08934000
   113  C          0.83441000       0.22917000       0.06556000
   114  C          0.16559000       0.77083000       0.93444000
   115  H          0.77971000       0.16217000       0.07026000
   116  H          0.22029000       0.83783000       0.92974000
   117  H          0.93291000       0.20677000       0.07306000
   118  H          0.06709000       0.79323000       0.92694000
   119  C          0.74672500       0.19451900       0.89001500
   120  C          0.25327500       0.80548100       0.10998500
   121  H          0.68342500       0.13381900       0.89601500
   122  H          0.31657500       0.86618100       0.10398500
   123  H          0.70002500       0.23321900       0.83471500
   124  H          0.29997500       0.76678100       0.16528500
   125  C          0.85932100       0.15461700       0.88471300
   126  C          0.14067900       0.84538300       0.11528700
   127  H          0.84032100       0.10281700       0.83331300
   128  H          0.15967900       0.89718300       0.16668700
   129  H          0.90492100       0.11511700       0.93901300
   130  H          0.09507900       0.88488300       0.06098700
   131  H          0.92152100       0.21451700       0.87771300
   132  H          0.07847900       0.78548300       0.12228700
