data_HINXEH
_symmetry_space_group_name_H-M    'P1'
_symmetry_Int_Tables_number       1
loop_
_symmetry_equiv_pos_site_id
_symmetry_equiv_pos_as_xyz
1 x,y,z
_cell_length_a                   9.3322
_cell_length_b                   14.06601
_cell_length_c                   23.7672
_cell_angle_alpha                94.1901
_cell_angle_beta                 101.1501
_cell_angle_gamma                96.8901
loop_
_atom_site_label
_atom_site_type_symbol
_atom_site_fract_x
_atom_site_fract_y
_atom_site_fract_z
     1  I          0.16418100       0.38019600       0.11524400
     2  I          0.83581900       0.61980400       0.88475600
     3  F          0.93369000       0.30675000      -0.00394000
     4  F          0.06631000       0.69325000       0.00394000
     5  F          0.18489000       0.60245000       0.09234000
     6  F          0.81511000       0.39755000       0.90766000
     7  C          0.06251400       0.45098000       0.04636000
     8  C          0.93748600       0.54902000       0.95364000
     9  C          0.96731400       0.40458000      -0.00076000
    10  C          0.03268600       0.59542000       0.00076000
    11  C          0.09331400       0.55058000       0.04576000
    12  C          0.90668600       0.44942000       0.95424000
    13  I          0.00446110       0.67105700       0.49873400
    14  I         -0.00446110       0.32894300       0.50126600
    15  I          0.94900800       0.75986500       0.35120300
    16  I          0.05099200       0.24013500       0.64879700
    17  I          0.84703800       0.88596400       0.22416300
    18  I          0.15296200       0.11403600       0.77583700
    19  I          0.02851800       0.13031500       0.20348300
    20  I          0.97148200       0.86968500       0.79651700
    21  P          0.22513000       0.84442190       0.47902110
    22  P          0.77487000       0.15557810       0.52097890
    23  P          0.73743000       0.64704170       0.23744110
    24  P          0.26257000       0.35295830       0.76255890
    25  P          0.72233000       0.02566180       0.12703110
    26  P          0.27767000       0.97433820       0.87296890
    27  N          0.06231100       0.78807000       0.45744000
    28  N          0.93768900       0.21193000       0.54256000
    29  N          0.85801000       0.73946000       0.26084000
    30  N          0.14199000       0.26054000       0.73916000
    31  N          0.82931000       0.03156000       0.18904000
    32  N          0.17069000       0.96844000       0.81096000
    33  C          0.26981300       0.88688000       0.55505000
    34  C          0.73018700       0.11312000       0.44495000
    35  C          0.30001500       0.82049000       0.59525000
    36  C          0.69998500       0.17951000       0.40475000
    37  H          0.30650000       0.75640000       0.58270000
    38  H          0.69350000       0.24360000       0.41730000
    39  C          0.32081600       0.84921000       0.65455000
    40  C          0.67918400       0.15079000       0.34545000
    41  H          0.34080000       0.80460000       0.68160000
    42  H          0.65920000       0.19540000       0.31840000
    43  C          0.31161600       0.94221000       0.67235000
    44  C          0.68838400       0.05779000       0.32765000
    45  H          0.32250000       0.96120000       0.71180000
    46  H          0.67750000       0.03880000       0.28820000
    47  C          0.28671500       0.00839000       0.63315000
    48  C          0.71328500      -0.00839000       0.36685000
    49  H          0.28310000       0.07260000       0.64610000
    50  H          0.71690000       0.92740000       0.35390000
    51  C          0.26681400       0.98139000       0.57495000
    52  C          0.73318600       0.01861000       0.42505000
    53  H          0.25120000       0.02750000       0.54850000
    54  H          0.74880000       0.97250000       0.45150000
    55  C          0.37471200       0.78077000       0.46654000
    56  C          0.62528800       0.21923000       0.53346000
    57  C          0.34671400       0.70818000       0.42085000
    58  C          0.65328600       0.29182000       0.57915000
    59  H          0.24960000       0.68700000       0.40080000
    60  H          0.75040000       0.31300000       0.59920000
    61  C          0.46431400       0.66728000       0.40525000
    62  C          0.53568600       0.33272000       0.59475000
    63  H          0.44710000       0.61840000       0.37450000
    64  H          0.55290000       0.38160000       0.62550000
    65  C          0.60471400       0.69878000       0.43495000
    66  C          0.39528600       0.30122000       0.56505000
    67  H          0.68380000       0.67090000       0.42450000
    68  H          0.31620000       0.32910000       0.57550000
    69  C          0.63281500       0.77149000       0.48056000
    70  C          0.36718500       0.22851000       0.51944000
    71  H          0.73010000       0.79240000       0.50030000
    72  H          0.26990000       0.20760000       0.49970000
    73  C          0.51841400       0.81198000       0.49625000
    74  C          0.48158600       0.18802000       0.50375000
    75  H          0.53680000       0.86060000       0.52700000
    76  H          0.46320000       0.13940000       0.47300000
    77  C          0.22661200       0.94407000       0.43574000
    78  C          0.77338800       0.05593000       0.56426000
    79  C          0.11491400       0.00159000       0.43355000
    80  C          0.88508600      -0.00159000       0.56645000
    81  H          0.04360000      -0.00980000       0.45620000
    82  H          0.95640000       0.00980000       0.54380000
    83  C          0.10811600       0.07569000       0.39806000
    84  C          0.89188400       0.92431000       0.60194000
    85  H          0.03560000       0.11660000       0.39800000
    86  H          0.96440000       0.88340000       0.60200000
    87  C          0.20811700       0.08859000       0.36296000
    88  C          0.79188300       0.91141000       0.63704000
    89  H          0.20080000       0.13750000       0.33800000
    90  H          0.79920000       0.86250000       0.66200000
    91  C          0.31851700       0.03231000       0.36295000
    92  C          0.68148300       0.96769000       0.63705000
    93  H          0.38630000       0.04230000       0.33860000
    94  H          0.61370000       0.95770000       0.66140000
    95  C          0.32711500       0.95958000       0.40015000
    96  C          0.67288500       0.04042000       0.59985000
    97  H          0.40230000       0.92050000       0.40100000
    98  H          0.59770000       0.07950000       0.59900000
    99  C          0.80411200       0.53937000       0.26154000
   100  C          0.19588800       0.46063000       0.73846000
   101  C          0.89161300       0.49208000       0.23065000
   102  C          0.10838700       0.50792000       0.76935000
   103  H          0.90880000       0.51420000       0.19580000
   104  H          0.09120000       0.48580000       0.80420000
   105  C          0.95361400       0.41298000       0.25016000
   106  C          0.04638600       0.58702000       0.74984000
   107  H          0.01410000       0.38250000       0.22920000
   108  H         -0.01410000       0.61750000       0.77080000
   109  C          0.92591600       0.37919000       0.30076000
   110  C          0.07408400       0.62081000       0.69924000
   111  H          0.96600000       0.32450000       0.31370000
   112  H          0.03400000       0.67550000       0.68630000
   113  C          0.83991700       0.42471000       0.33206000
   114  C          0.16008300       0.57529000       0.66794000
   115  H          0.82390000       0.40270000       0.36700000
   116  H          0.17610000       0.59730000       0.63300000
   117  C          0.77711500       0.50348000       0.31165000
   118  C          0.22288500       0.49652000       0.68835000
   119  H          0.71500000       0.53270000       0.33230000
   120  H          0.28500000       0.46730000       0.66770000
   121  C          0.55661200       0.64957000       0.25434000
   122  C          0.44338800       0.35043000       0.74566000
   123  C          0.45641300       0.56648000       0.24945000
   124  C          0.54358700       0.43352000       0.75055000
   125  H          0.48560000       0.50570000       0.24220000
   126  H          0.51440000       0.49430000       0.75780000
   127  C          0.31271400       0.57381000       0.25535000
   128  C          0.68728600       0.42619000       0.74465000
   129  H          0.24440000       0.51780000       0.25180000
   130  H          0.75560000       0.48220000       0.74820000
   131  C          0.26981400       0.66141100       0.26615000
   132  C          0.73018600       0.33858900       0.73385000
   133  H          0.17200000       0.66580000       0.26940000
   134  H          0.82800000       0.33420000       0.73060000
   135  C          0.36961500       0.74291000       0.27225000
   136  C          0.63038500       0.25709000       0.72775000
   137  H          0.34010000       0.80310000       0.28070000
   138  H          0.65990000       0.19690000       0.71930000
   139  C          0.51331300       0.73848000       0.26595000
   140  C          0.48668700       0.26152000       0.73405000
   141  H          0.58060000       0.79500000       0.26960000
   142  H          0.41940000       0.20500000       0.73040000
   143  C          0.70551200       0.63747000       0.15974000
   144  C          0.29448800       0.36253000       0.84026000
   145  C          0.57071300       0.59517000       0.12614000
   146  C          0.42928700       0.40483000       0.87386000
   147  H          0.49510000       0.56830000       0.14350000
   148  H          0.50490000       0.43170000       0.85650000
   149  C          0.54871500       0.59289000       0.06585000
   150  C          0.45128500       0.40711000       0.93415000
   151  H          0.45830000       0.56370000       0.04280000
   152  H          0.54170000       0.43630000       0.95720000
   153  C          0.65821700       0.63279000       0.04025000
   154  C          0.34178300       0.36721000       0.95975000
   155  H          0.64160000       0.63230000      -0.00020000
   156  H          0.35840000       0.36770000       0.00020000
   157  C          0.79091500       0.67308000       0.07305000
   158  C          0.20908500       0.32692000       0.92695000
   159  H          0.86570000       0.69980000       0.05520000
   160  H          0.13430000       0.30020000       0.94480000
   161  C          0.81691300       0.67497000       0.13315000
   162  C          0.18308700       0.32503000       0.86685000
   163  H          0.90950000       0.70150000       0.15540000
   164  H          0.09050000       0.29850000       0.84460000
   165  C          0.54711200       0.96087000       0.13234000
   166  C          0.45288800       0.03913000       0.86766000
   167  C          0.50781300       0.86408000       0.11275000
   168  C          0.49218700       0.13592000       0.88725000
   169  H          0.56940000       0.83180000       0.09330000
   170  H          0.43060000       0.16820000       0.90670000
   171  C          0.37851500       0.81529000       0.12187000
   172  C          0.62148500       0.18471000       0.87813000
   173  H          0.35350000       0.74940000       0.10910000
   174  H          0.64650000       0.25060000       0.89090000
   175  C          0.28681400       0.86071000       0.14886000
   176  C          0.71318600       0.13929000       0.85114000
   177  H          0.19760000       0.82670000       0.15360000
   178  H          0.80240000       0.17330000       0.84640000
   179  C          0.32331400       0.95531000       0.16906000
   180  C          0.67668600       0.04469000       0.83094000
   181  H          0.26210000       0.98600000       0.18940000
   182  H          0.73790000       0.01400000       0.81060000
   183  C          0.45281300       0.00658000       0.15915000
   184  C          0.54718700      -0.00658000       0.84085000
   185  H          0.47550000       0.07270000       0.17090000
   186  H          0.52450000       0.92730000       0.82910000
   187  C          0.78001300       0.96307000       0.06834000
   188  C          0.21998700       0.03693000       0.93166000
   189  C          0.92451200       0.94367000       0.07524000
   190  C          0.07548800       0.05633000       0.92476000
   191  H         -0.01050000       0.96230000       0.11080000
   192  H          0.01050000       0.03770000       0.88920000
   193  C          0.97501400       0.89788000       0.03135000
   194  C          0.02498600       0.10212000       0.96865000
   195  H          0.07290000       0.88460000       0.03720000
   196  H          0.92710000       0.11540000       0.96280000
   197  C          0.88081500       0.87137000       0.97815000
   198  C          0.11918500       0.12863000       0.02185000
   199  H          0.91560000       0.84090000       0.94800000
   200  H          0.08440000       0.15910000       0.05200000
   201  C          0.73771500       0.88908000       0.96955000
   202  C          0.26228500       0.11092000       0.03045000
   203  H          0.67440000       0.86980000       0.93360000
   204  H          0.32560000       0.13020000       0.06640000
   205  C          0.68501500       0.93548000       0.01385000
   206  C          0.31498500       0.06452000       0.98615000
   207  H          0.58700000       0.94830000       0.00750000
   208  H          0.41300000       0.05170000       0.99250000
   209  C          0.69271200       0.14537000       0.10925000
   210  C          0.30728800       0.85463000       0.89075000
   211  C          0.68481300       0.17268000       0.05465000
   212  C          0.31518700       0.82732000       0.94535000
   213  H          0.69940000       0.12960000       0.02480000
   214  H          0.30060000       0.87040000       0.97520000
   215  C          0.65451500       0.26528000       0.04416000
   216  C          0.34548500       0.73472000       0.95584000
   217  H          0.64530000       0.28340000       0.00640000
   218  H          0.35470000       0.71660000       0.99360000
   219  C          0.63861500       0.32808000       0.08576000
   220  C          0.36138500       0.67192000       0.91424000
   221  H          0.62090000       0.39050000       0.07760000
   222  H          0.37910000       0.60950000       0.92240000
   223  C          0.64761500       0.30278000       0.14046000
   224  C          0.35238500       0.69722000       0.85954000
   225  H          0.63400000       0.34750000       0.16950000
   226  H          0.36600000       0.65250000       0.83050000
   227  C          0.67681400       0.21128000       0.15365000
   228  C          0.32318600       0.78872000       0.84635000
   229  H          0.68550000       0.19430000       0.19150000
   230  H          0.31450000       0.80570000       0.80850000
   231  I          0.32658140       0.26340800       0.22502500
   232  I          0.67341860       0.73659200       0.77497500
   233  I          0.39737130       0.37089600       0.36334400
   234  I          0.60262870       0.62910400       0.63665600
   235  F          0.21271200       0.46907000       0.44674000
   236  F          0.78728800       0.53093000       0.55326000
   237  F          0.70521200       0.43488000       0.44894000
   238  F          0.29478800       0.56512000       0.55106000
   239  C          0.35811800       0.48311000       0.47387000
   240  C          0.64188200       0.51689000       0.52613000
   241  C          0.46120000       0.44731000       0.44686000
   242  C          0.53880000       0.55269000       0.55314000
   243  C          0.60291900       0.46701100       0.47336000
   244  C          0.39708100       0.53298900       0.52664000
