data_HIQGAT
_symmetry_space_group_name_H-M    'P1'
_symmetry_Int_Tables_number       1
loop_
_symmetry_equiv_pos_site_id
_symmetry_equiv_pos_as_xyz
1 x,y,z
_cell_length_a                   14.87287
_cell_length_b                   3.87862
_cell_length_c                   15.48578
_cell_angle_alpha                90.0
_cell_angle_beta                 115.1825
_cell_angle_gamma                90.0
loop_
_atom_site_label
_atom_site_type_symbol
_atom_site_fract_x
_atom_site_fract_y
_atom_site_fract_z
     1  O          0.21794180       0.45399000       0.15805180
     2  O          0.78205820       0.95399000       0.84194820
     3  H          0.27569700       0.38863600       0.17758600
     4  H          0.72430300       0.88863600       0.82241400
     5  O          0.26888190       0.48871000       0.32328180
     6  O          0.73111810      -0.01129000       0.67671820
     7  H          0.24489000       0.52935500       0.36107300
     8  H          0.75511000       0.02935500       0.63892700
     9  N          0.73507000       0.25611100       0.13023000
    10  N          0.26493000       0.75611100       0.86977000
    11  C          0.09493000       0.71239000       0.20983000
    12  C          0.90507000       0.21239000       0.79017000
    13  C          0.02103000       0.71921000       0.11603000
    14  C          0.97897000       0.21921000       0.88397000
    15  H          0.03525700       0.63098000       0.06741000
    16  H          0.96474300       0.13098000       0.93259000
    17  C          0.92717000       0.85311000       0.09323000
    18  C          0.07283000       0.35311000       0.90677000
    19  H          0.87923600       0.85343300       0.03034900
    20  H          0.12076400       0.35343300       0.96965100
    21  C          0.90587000      -0.01359000       0.16542000
    22  C          0.09413000       0.48641000       0.83458000
    23  C          0.97747000      -0.01458900       0.25923000
    24  C          0.02253000       0.48541100       0.74077000
    25  H          0.96297900       0.07397700       0.30758100
    26  H          0.03702100       0.57397700       0.69241900
    27  C          0.07063000       0.85201000       0.28003000
    28  C          0.92937000       0.35201000       0.71997000
    29  H          0.11846700       0.85556000       0.34285600
    30  H          0.88153300       0.35556000       0.65714400
    31  C          0.80977000       0.13291000       0.14453000
    32  C          0.19023000       0.63291000       0.85547000
    33  B          0.19923000       0.54731200       0.23253000
    34  B          0.80077000       0.04731200       0.76747000
    35  N          0.39412000       0.11429000       0.18832000
    36  N          0.60588000       0.61429000       0.81168000
    37  N          0.75722000       0.00509000       0.50272000
    38  N          0.24278000       0.50509000       0.49728000
    39  C          0.54853000       0.81119000       0.15893000
    40  C          0.45147000       0.31119000       0.84107000
    41  H          0.59964600       0.71031700       0.14836900
    42  H          0.40035400       0.21031700       0.85163100
    43  C          0.45703000       0.84808800       0.08553000
    44  C          0.54297000       0.34808800       0.91447000
    45  H          0.44456700       0.77127600       0.02452900
    46  H          0.55543300       0.27127600       0.97547100
    47  C          0.38263000       0.00311200       0.10363000
    48  C          0.61737000       0.50311200       0.89637000
    49  H          0.32062800       0.03059600       0.05268900
    50  H          0.67937200       0.53059600       0.94731100
    51  C          0.48553000       0.07399000       0.26233000
    52  C          0.51447000       0.57399000       0.73767000
    53  C          0.49783000       0.19031000       0.35483000
    54  C          0.50217000       0.69031000       0.64517000
    55  H          0.44400300       0.28505900       0.36203500
    56  H          0.55599700       0.78505900       0.63796500
    57  C          0.58653000       0.16421100       0.43133000
    58  C          0.41347000       0.66421100       0.56867000
    59  H          0.59286700       0.24183200       0.49051300
    60  H          0.40713300       0.74183200       0.50948700
    61  C          0.67023000       0.01951000       0.42273000
    62  C          0.32977000       0.51951000       0.57727000
    63  C          0.83443000       0.87168800       0.49443000
    64  C          0.16557000       0.37168800       0.50557000
    65  H          0.89414600       0.86180600       0.54887800
    66  H          0.10585400       0.36180600       0.45112200
    67  C          0.83283000       0.74478800       0.41023000
    68  C          0.16717000       0.24478800       0.58977000
    69  H          0.88993000       0.65389700       0.40863800
    70  H          0.11007000       0.15389700       0.59136200
    71  C          0.74573000       0.75568900       0.32933000
    72  C          0.25427000       0.25568900       0.67067000
    73  H          0.74260800       0.66901100       0.27215000
    74  H          0.25739200       0.16901100       0.72785000
    75  C          0.66113000       0.89851000       0.33343000
    76  C          0.33887000       0.39851000       0.66657000
    77  C          0.56583000       0.92541000       0.25092000
    78  C          0.43417000       0.42541000       0.74908000
