data_HIQGEX
_symmetry_space_group_name_H-M    'P1'
_symmetry_Int_Tables_number       1
loop_
_symmetry_equiv_pos_site_id
_symmetry_equiv_pos_as_xyz
1 x,y,z
_cell_length_a                   11.08408
_cell_length_b                   7.33115
_cell_length_c                   21.091313
_cell_angle_alpha                90.0
_cell_angle_beta                 99.0076
_cell_angle_gamma                90.0
loop_
_atom_site_label
_atom_site_type_symbol
_atom_site_fract_x
_atom_site_fract_y
_atom_site_fract_z
     1  O          0.41552130       0.84672000       0.53079800
     2  O          0.08447870       0.34672000       0.96920200
     3  O          0.58447870       0.15328000       0.46920200
     4  O          0.91552130       0.65328000       0.03079800
     5  H          0.35948900       0.79570400       0.54493800
     6  H          0.14051100       0.29570400       0.95506200
     7  H          0.64051100       0.20429600       0.45506200
     8  H          0.85948900       0.70429600       0.04493800
     9  O          0.62896130       0.85632000       0.54921900
    10  O          0.87103870       0.35632000       0.95078100
    11  O          0.37103870       0.14368000       0.45078100
    12  O          0.12896130       0.64368000       0.04921900
    13  H          0.61268100       0.95130600       0.52914400
    14  H          0.88731900       0.45130600       0.97085600
    15  H          0.38731900       0.04869400       0.47085600
    16  H          0.11268100       0.54869400       0.02914400
    17  N          0.57712000       0.95147000       0.72519130
    18  N          0.92288000       0.45147000       0.77480870
    19  N          0.42288000       0.04853000       0.27480870
    20  N          0.07712000       0.54853000       0.22519130
    21  C          0.53488180       0.58603000       0.59523110
    22  C          0.96511820       0.08603000       0.90476890
    23  C          0.46511820       0.41397000       0.40476890
    24  C          0.03488180       0.91397000       0.09523110
    25  C          0.44278190       0.45543000       0.58639110
    26  C          0.05721810       0.95543000       0.91360890
    27  C          0.55721810       0.54457000       0.41360890
    28  C          0.94278190       0.04457000       0.08639110
    29  H          0.37152800       0.47998400       0.55808500
    30  H          0.12847200       0.97998400       0.94191500
    31  H          0.62847200       0.52001600       0.44191500
    32  H          0.87152800       0.02001600       0.05808500
    33  C          0.45382000       0.29053000       0.61828120
    34  C          0.04618000       0.79053000       0.88171880
    35  C          0.54618000       0.70947000       0.38171880
    36  C          0.95382000       0.20947000       0.11828120
    37  H          0.39134900       0.20473300       0.61096400
    38  H          0.10865100       0.70473300       0.88903600
    39  H          0.60865100       0.79526700       0.38903600
    40  H          0.89134900       0.29526700       0.11096400
    41  C          0.55852190       0.25403000       0.66120110
    42  C          0.94147810       0.75403000       0.83879890
    43  C          0.44147810       0.74597000       0.33879890
    44  C          0.05852190       0.24597000       0.16120110
    45  C          0.65182000       0.38093000       0.67162120
    46  C          0.84818000       0.88093000       0.82837880
    47  C          0.34818000       0.61907000       0.32837880
    48  C          0.15182000       0.11907000       0.17162120
    49  H          0.72224700       0.35687500       0.70060500
    50  H          0.77775300       0.85687500       0.79939500
    51  H          0.27775300       0.64312500       0.29939500
    52  H          0.22224700       0.14312500       0.20060500
    53  C          0.63906190       0.54353000       0.63850120
    54  C          0.86093810       0.04353000       0.86149880
    55  C          0.36093810       0.45647000       0.36149880
    56  C          0.13906190       0.95647000       0.13850120
    57  H          0.70241800       0.62785800       0.64531900
    58  H          0.79758200       0.12785800       0.85468100
    59  H          0.29758200       0.37214200       0.35468100
    60  H          0.20241800       0.87214200       0.14531900
    61  C          0.56932000       0.08464000       0.69664130
    62  C          0.93068000       0.58464000       0.80335870
    63  C          0.43068000       0.91536000       0.30335870
    64  C          0.06932000       0.41536000       0.19664130
    65  B          0.52372000       0.77034000       0.55709140
    66  B          0.97628000       0.27034000       0.94290860
    67  B          0.47628000       0.22966000       0.44290860
    68  B          0.02372000       0.72966000       0.05709140
    69  N          0.18901150       0.77712000       0.55596900
    70  N          0.31098850       0.27712000       0.94403100
    71  N          0.81098850       0.22288000       0.44403100
    72  N          0.68901150       0.72288000       0.05596900
    73  C          0.15859190       0.83643000       0.61193110
    74  C          0.34140810       0.33643000       0.88806890
    75  C          0.84140810       0.16357000       0.38806890
    76  C          0.65859190       0.66357000       0.11193110
    77  C          0.25322000       0.87923000       0.66320130
    78  C          0.24678000       0.37923000       0.83679870
    79  C          0.74678000       0.12077000       0.33679870
    80  C          0.75322000       0.62077000       0.16320130
    81  H          0.33424300       0.85899600       0.65861000
    82  H          0.16575700       0.35899600       0.84139000
    83  H          0.66575700       0.14100400       0.34139000
    84  H          0.83424300       0.64100400       0.15861000
    85  C          0.22653000       0.94954000       0.71891150
    86  C          0.27347000       0.44954000       0.78108850
    87  C          0.77347000       0.05046000       0.28108850
    88  C          0.72653000       0.55046000       0.21891150
    89  H          0.28963400       0.97998700       0.75161400
    90  H          0.21036600       0.47998700       0.74838600
    91  H          0.71036600       0.02001300       0.24838600
    92  H          0.78963400       0.52001300       0.25161400
    93  C          0.10514000       0.97674000       0.72794150
    94  C          0.39486000       0.47674000       0.77205850
    95  C          0.89486000       0.02326000       0.27205850
    96  C          0.60514000       0.52326000       0.22794150
    97  H          0.08868400       0.02485100       0.76647900
    98  H          0.41131600       0.52485100       0.73352100
    99  H          0.91131600       0.97514900       0.23352100
   100  H          0.58868400       0.47514900       0.26647900
   101  C          0.01193000       0.93364000       0.68115140
   102  C          0.48807000       0.43364000       0.81884860
   103  C         -0.01193000       0.06636000       0.31884860
   104  C          0.51193000       0.56636000       0.18115140
   105  H          0.93182800       0.95026500       0.68812300
   106  H          0.56817200       0.45026500       0.81187700
   107  H          0.06817200       0.04973500       0.31187700
   108  H          0.43182800       0.54973500       0.18812300
   109  C          0.03472000       0.86263000       0.62106120
   110  C          0.46528000       0.36263000       0.87893880
   111  C          0.96528000       0.13737000       0.37893880
   112  C          0.53472000       0.63737000       0.12106120
   113  C          0.94363810       0.82443000       0.57019130
   114  C          0.55636190       0.32443000       0.92980870
   115  C          0.05636190       0.17557000       0.42980870
   116  C          0.44363810       0.67557000       0.07019130
   117  H          0.86222700       0.83939900       0.57496800
   118  H          0.63777300       0.33939900       0.92503200
   119  H          0.13777300       0.16060100       0.42503200
   120  H          0.36222700       0.66060100       0.07496800
   121  C          0.97239820       0.76413000       0.51223120
   122  C          0.52760180       0.26413000       0.98776880
   123  C          0.02760180       0.23587000       0.48776880
   124  C          0.47239820       0.73587000       0.01223120
   125  C          0.88268000       0.72623000       0.45823140
   126  C          0.61732000       0.22623000       0.04176860
   127  C          0.11732000       0.27377000       0.54176860
   128  C          0.38268000       0.77377000       0.95823140
   129  H          0.80039200       0.74000500       0.46123200
   130  H          0.69960800       0.24000500       0.03876800
   131  H          0.19960800       0.25999500       0.53876800
   132  H          0.30039200       0.75999500       0.96123200
   133  C          0.91577000       0.67033000       0.40258150
   134  C          0.58423000       0.17033000       0.09741850
   135  C          0.08423000       0.32967000       0.59741850
   136  C          0.41577000       0.82967000       0.90258150
   137  H          0.85611400       0.64508300       0.36755500
   138  H          0.64388600       0.14508300       0.13244500
   139  H          0.14388600       0.35491700       0.63244500
   140  H          0.35611400       0.85491700       0.86755500
   141  C          0.04003000       0.64983000       0.39695130
   142  C          0.45997000       0.14983000       0.10304870
   143  C          0.95997000       0.35017000       0.60304870
   144  C          0.54003000       0.85017000       0.89695130
   145  H          0.06111100       0.61185000       0.35806600
   146  H          0.43888900       0.11185000       0.14193400
   147  H          0.93888900       0.38815000       0.64193400
   148  H          0.56111100       0.88815000       0.85806600
   149  C          0.12942000       0.68443000       0.44716120
   150  C          0.37058000       0.18443000       0.05283880
   151  C          0.87058000       0.31557000       0.55283880
   152  C          0.62942000       0.81557000       0.94716120
   153  H          0.21093500       0.66974800       0.44258700
   154  H          0.28906500       0.16974800       0.05741300
   155  H          0.78906500       0.33025200       0.55741300
   156  H          0.71093500       0.83025200       0.94258700
   157  C          0.09839190       0.74303000       0.50669110
   158  C          0.40160810       0.24303000      -0.00669110
   159  C          0.90160810       0.25697000       0.49330890
   160  C          0.59839190       0.75697000       0.00669110
