data_HIQROQ
_symmetry_space_group_name_H-M    'P1'
_symmetry_Int_Tables_number       1
loop_
_symmetry_equiv_pos_site_id
_symmetry_equiv_pos_as_xyz
1 x,y,z
_cell_length_a                   5.06406
_cell_length_b                   8.35091
_cell_length_c                   16.031819
_cell_angle_alpha                101.9867
_cell_angle_beta                 90.8736
_cell_angle_gamma                105.4797
loop_
_atom_site_label
_atom_site_type_symbol
_atom_site_fract_x
_atom_site_fract_y
_atom_site_fract_z
     1  O          0.20553000       0.72792000       0.36702100
     2  O          0.79447000       0.27208000       0.63297900
     3  O          0.62563000       0.89015190       0.35449900
     4  O          0.37437000       0.10984810       0.64550100
     5  C          0.47994000       0.92032000       0.18713120
     6  C          0.52006000       0.07968000       0.81286880
     7  H          0.54540000       0.04130000       0.21760000
     8  H          0.45460000       0.95870000       0.78240000
     9  H          0.64060000       0.87350000       0.18160000
    10  H          0.35940000       0.12650000       0.81840000
    11  C          0.56094000       0.00552000       0.04447110
    12  C          0.43906000      -0.00552000       0.95552890
    13  H          0.62730000       0.12680000       0.07440000
    14  H          0.37270000       0.87320000       0.92560000
    15  H          0.72120000       0.95840000       0.03910000
    16  H          0.27880000       0.04160000       0.96090000
    17  C          0.27414000       0.82282000       0.23974120
    18  C          0.72586000       0.17718000       0.76025880
    19  H          0.11950000       0.87480000       0.24800000
    20  H          0.88050000       0.12520000       0.75200000
    21  H          0.19900000       0.70410000       0.20690000
    22  H          0.80100000       0.29590000       0.79310000
    23  C          0.39044000       0.81922000       0.32577120
    24  C          0.60956000       0.18078000       0.67422880
    25  C          0.35674000       0.91002000       0.09842120
    26  C          0.64326000       0.08998000       0.90157880
    27  H          0.19700000       0.95770000       0.10420000
    28  H          0.80300000       0.04230000       0.89580000
    29  H          0.28920000       0.78880000       0.06840000
    30  H          0.71080000       0.21120000       0.93160000
    31  H          0.27260000       0.73140000       0.41481900
    32  H          0.72740000       0.26860000       0.58518100
    33  Br         0.34175500       0.42012300       0.09032413
    34  Br         0.65824500       0.57987700       0.90967587
    35  N          0.19534000       0.20263000       0.48455120
    36  N          0.80466000       0.79737000       0.51544880
    37  O          0.65453000       0.28672000       0.47957900
    38  O          0.34547000       0.71328000       0.52042100
    39  C          0.38664000       0.30552000       0.36164110
    40  C          0.61336000       0.69448000       0.63835890
    41  C          0.36034000       0.37712000       0.20175120
    42  C          0.63966000       0.62288000       0.79824880
    43  C          0.59614000       0.45582000       0.25572130
    44  C          0.40386000       0.54418000       0.74427870
    45  H          0.74630000       0.53430000       0.23830000
    46  H          0.25370000       0.46570000       0.76170000
    47  C          0.60894000       0.41822000       0.33531130
    48  C          0.39106000       0.58178000       0.66468870
    49  H          0.77070000       0.46950000       0.37250000
    50  H          0.22930000       0.53050000       0.62750000
    51  C          0.14904000       0.23082000       0.30736120
    52  C          0.85096000       0.76918000       0.69263880
    53  H         -0.00410000       0.15550000       0.32540000
    54  H          0.00410000       0.84450000       0.67460000
    55  C          0.41844000       0.26372000       0.44671120
    56  C          0.58156000       0.73628000       0.55328880
    57  C          0.13554000       0.26633000       0.22680130
    58  C          0.86446000       0.73367000       0.77319870
    59  H         -0.02580000       0.21530000       0.18930000
    60  H          0.02580000       0.78470000       0.81070000
    61  H          0.04950000       0.21030000       0.46631500
    62  H          0.95050000       0.78970000       0.53368500
    63  H          0.21750000       0.17630000       0.53181700
    64  H          0.78250000       0.82370000       0.46818300
