data_HIQSOR
_symmetry_space_group_name_H-M    'P1'
_symmetry_Int_Tables_number       1
loop_
_symmetry_equiv_pos_site_id
_symmetry_equiv_pos_as_xyz
1 x,y,z
_cell_length_a                   9.3817
_cell_length_b                   10.2077
_cell_length_c                   20.48814
_cell_angle_alpha                90.0
_cell_angle_beta                 99.2869
_cell_angle_gamma                90.0
loop_
_atom_site_label
_atom_site_type_symbol
_atom_site_fract_x
_atom_site_fract_y
_atom_site_fract_z
     1  Br         0.90072600       0.08421500       0.22583419
     2  Br         0.09927400       0.58421500       0.27416581
     3  Br         0.09927400       0.91578500       0.77416581
     4  Br         0.90072600       0.41578500       0.72583419
     5  O          0.53073000       0.11353000       0.09922150
     6  O          0.46927000       0.61353000       0.40077850
     7  O          0.46927000       0.88647000       0.90077850
     8  O          0.53073000       0.38647000       0.59922150
     9  N          0.48454000       0.89927000       0.07701190
    10  N          0.51546000       0.39927000       0.42298810
    11  N          0.51546000       0.10073000       0.92298810
    12  N          0.48454000       0.60073000       0.57701190
    13  C          0.06874000       0.06154000       0.18660190
    14  C          0.93126000       0.56154000       0.31339810
    15  C          0.93126000       0.93846000       0.81339810
    16  C          0.06874000       0.43846000       0.68660190
    17  C          0.24725000       0.91956000       0.15398190
    18  C          0.75275000       0.41956000       0.34601810
    19  C          0.75275000       0.08044000       0.84601810
    20  C          0.24725000       0.58044000       0.65398190
    21  H          0.28510000       0.83410000       0.15050000
    22  H          0.71490000       0.33410000       0.34950000
    23  H          0.71490000       0.16590000       0.84950000
    24  H          0.28510000       0.66590000       0.65050000
    25  C          0.31634000       0.02864000       0.12995190
    26  C          0.68366000       0.52864000       0.37004810
    27  C          0.68366000       0.97136000       0.87004810
    28  C          0.31634000       0.47136000       0.62995190
    29  C          0.45004000       0.01474000       0.10046190
    30  C          0.54996000       0.51474000       0.39953810
    31  C          0.54996000       0.98526000       0.89953810
    32  C          0.45004000       0.48526000       0.60046190
    33  C          0.12445000       0.93696000       0.18255190
    34  C          0.87555000       0.43696000       0.31744810
    35  C          0.87555000       0.06304000       0.81744810
    36  C          0.12445000       0.56304000       0.68255190
    37  H          0.07890000       0.86390000       0.19920000
    38  H          0.92110000       0.36390000       0.30080000
    39  H          0.92110000       0.13610000       0.80080000
    40  H          0.07890000       0.63610000       0.69920000
    41  C          0.13385000       0.17034000       0.16299190
    42  C          0.86615000       0.67034000       0.33700810
    43  C          0.86615000       0.82966000       0.83700810
    44  C          0.13385000       0.32966000       0.66299190
    45  H          0.09420000       0.25530000       0.16600000
    46  H          0.90580000       0.75530000       0.33400000
    47  H          0.90580000       0.74470000       0.83400000
    48  H          0.09420000       0.24470000       0.66600000
    49  C          0.25724000       0.15264000       0.13506190
    50  C          0.74276000       0.65264000       0.36493810
    51  C          0.74276000       0.84736000       0.86493810
    52  C          0.25724000       0.34736000       0.63506190
    53  H          0.30250000       0.22650000       0.11900000
    54  H          0.69750000       0.72650000       0.38100000
    55  H          0.69750000       0.77350000       0.88100000
    56  H          0.30250000       0.27350000       0.61900000
    57  H          0.41950000       0.83760000       0.07320000
    58  H          0.58050000       0.33760000       0.42680000
    59  H          0.58050000       0.16240000       0.92680000
    60  H          0.41950000       0.66240000       0.57320000
    61  H          0.57180000       0.88330000       0.06430000
    62  H          0.42820000       0.38330000       0.43570000
    63  H          0.42820000       0.11670000       0.93570000
    64  H          0.57180000       0.61670000       0.56430000
    65  Br         0.59311400       0.97597500       0.27851200
    66  Br         0.40688600       0.47597500       0.22148800
    67  Br         0.40688600       0.02402500       0.72148800
    68  Br         0.59311400       0.52402500       0.77851200
    69  O          0.96097000       0.96057000       0.40527150
    70  O          0.03903000       0.46057000       0.09472850
    71  O          0.03903000       0.03943000       0.59472850
    72  O          0.96097000       0.53943000       0.90527150
    73  N          0.00944000       0.17604000       0.42239190
    74  N         -0.00944000       0.67604000       0.07760810
    75  N         -0.00944000       0.82396000       0.57760810
    76  N          0.00944000       0.32396000       0.92239190
    77  C          0.24974000       0.14874000       0.35073190
    78  C          0.75026000       0.64874000       0.14926810
    79  C          0.75026000       0.85126000       0.64926810
    80  C          0.24974000       0.35126000       0.85073190
    81  H          0.21490000       0.23510000       0.35520000
    82  H          0.78510000       0.73510000       0.14480000
    83  H          0.78510000       0.76490000       0.64480000
    84  H          0.21490000       0.26490000       0.85520000
    85  C          0.04195000       0.05724000       0.40194190
    86  C          0.95805000       0.55724000       0.09805810
    87  C          0.95805000       0.94276000       0.59805810
    88  C          0.04195000       0.44276000       0.90194190
    89  C          0.37274000       0.12954000       0.32271190
    90  C          0.62726000       0.62954000       0.17728810
    91  C          0.62726000       0.87046000       0.67728810
    92  C          0.37274000       0.37046000       0.82271190
    93  H          0.42150000       0.20220000       0.30750000
    94  H          0.57850000       0.70220000       0.19250000
    95  H          0.57850000       0.79780000       0.69250000
    96  H          0.42150000       0.29780000       0.80750000
    97  C          0.42484000       0.00244000       0.31685190
    98  C          0.57516000       0.50244000       0.18314810
    99  C          0.57516000      -0.00244000       0.68314810
   100  C          0.42484000       0.49756000       0.81685190
   101  C          0.17524000       0.04114000       0.37274180
   102  C          0.82476000       0.54114000       0.12725820
   103  C          0.82476000       0.95886000       0.62725820
   104  C          0.17524000       0.45886000       0.87274180
   105  C          0.22944000       0.91496000       0.36534190
   106  C          0.77056000       0.41496000       0.13465810
   107  C          0.77056000       0.08504000       0.63465810
   108  C          0.22944000       0.58504000       0.86534190
   109  H          0.18020000       0.84170000       0.37960000
   110  H          0.81980000       0.34170000       0.12040000
   111  H          0.81980000       0.15830000       0.62040000
   112  H          0.18020000       0.65830000       0.87960000
   113  C          0.35194000       0.89476000       0.33797190
   114  C          0.64806000       0.39476000       0.16202810
   115  C          0.64806000       0.10524000       0.66202810
   116  C          0.35194000       0.60524000       0.83797190
   117  H          0.38680000       0.80850000       0.33340000
   118  H          0.61320000       0.30850000       0.16660000
   119  H          0.61320000       0.19150000       0.66660000
   120  H          0.38680000       0.69150000       0.83340000
   121  H          0.08240000       0.22740000       0.42720000
   122  H          0.91760000       0.72740000       0.07280000
   123  H          0.91760000       0.77260000       0.57280000
   124  H          0.08240000       0.27260000       0.92720000
   125  H          0.92960000       0.18660000       0.43830000
   126  H          0.07040000       0.68660000       0.06170000
   127  H          0.07040000       0.81340000       0.56170000
   128  H          0.92960000       0.31340000       0.93830000
   129  O          0.26803000       0.45113000       0.04092150
   130  O          0.73197000       0.95113000       0.45907850
   131  O          0.73197000       0.54887000       0.95907850
   132  O          0.26803000       0.04887000       0.54092150
   133  O          0.29613000       0.66713000       0.05828140
   134  O          0.70387000       0.16713000       0.44171860
   135  O          0.70387000       0.33287000       0.94171860
   136  O          0.29613000       0.83287000       0.55828140
   137  C          0.33794000       0.56264000       0.03807190
   138  C          0.66206000       0.06264000       0.46192810
   139  C          0.66206000       0.43736000       0.96192810
   140  C          0.33794000       0.93736000       0.53807190
   141  C          0.46984000       0.55584000       0.00734190
   142  C          0.53016000       0.05584000       0.49265810
   143  C          0.53016000       0.44416000       0.99265810
   144  C          0.46984000       0.94416000       0.50734190
   145  H          0.51650000       0.64450000       0.00020000
   146  H          0.48350000       0.14450000       0.49980000
   147  H          0.48350000       0.35550000      -0.00020000
   148  H          0.51650000       0.85550000       0.50020000
   149  H          0.18480000       0.45770000       0.06030000
   150  H          0.81520000       0.95770000       0.43970000
   151  H          0.81520000       0.54230000       0.93970000
   152  H          0.18480000       0.04230000       0.56030000
   153  H          0.48450000       0.35650000       0.00020000
   154  H          0.51550000       0.85650000       0.49980000
   155  H          0.51550000       0.64350000      -0.00020000
   156  H          0.48450000       0.14350000       0.50020000
   157  H          0.81680000       0.54370000       0.93970000
   158  H          0.18320000       0.04370000       0.56030000
   159  H          0.18320000       0.45630000       0.06030000
   160  H          0.81680000       0.95630000       0.43970000
   161  O          0.76843000       0.12813000       0.05624150
   162  O          0.23157000       0.62813000       0.44375850
   163  O          0.23157000       0.87187000       0.94375850
   164  O          0.76843000       0.37187000       0.55624150
   165  O          0.78353000       0.90887000       0.04727150
   166  O          0.21647000       0.40887000       0.45272850
   167  O          0.21647000       0.09113000       0.95272850
   168  O          0.78353000       0.59113000       0.54727150
   169  C          0.83224000       0.02034000       0.04137190
   170  C          0.16776000       0.52034000       0.45862810
   171  C          0.16776000       0.97966000       0.95862810
   172  C          0.83224000       0.47966000       0.54137190
   173  C          0.96704000       0.04574000       0.01503190
   174  C          0.03296000       0.54574000       0.48496810
   175  C          0.03296000       0.95426000       0.98496810
   176  C          0.96704000       0.45426000       0.51503190
   177  H          0.00550000       0.13250000       0.01820000
   178  H         -0.00550000       0.63250000       0.48180000
   179  H         -0.00550000       0.86750000       0.98180000
   180  H          0.00550000       0.36750000       0.51820000
   181  H          0.68880000       0.10970000       0.07230000
   182  H          0.31120000       0.60970000       0.42770000
   183  H          0.31120000       0.89030000       0.92770000
   184  H          0.68880000       0.39030000       0.57230000
   185  H          0.31280000       0.89030000       0.92770000
   186  H          0.68720000       0.39030000       0.57230000
   187  H          0.68720000       0.10970000       0.07230000
   188  H          0.31280000       0.60970000       0.42770000
