data_HIRMOK
_symmetry_space_group_name_H-M    'P1'
_symmetry_Int_Tables_number       1
loop_
_symmetry_equiv_pos_site_id
_symmetry_equiv_pos_as_xyz
1 x,y,z
_cell_length_a                   8.3602
_cell_length_b                   6.33001
_cell_length_c                   14.7503
_cell_angle_alpha                90.0
_cell_angle_beta                 92.863
_cell_angle_gamma                90.0
loop_
_atom_site_label
_atom_site_type_symbol
_atom_site_fract_x
_atom_site_fract_y
_atom_site_fract_z
     1  I          0.72398400       0.38284700       0.87423300
     2  I          0.27601600       0.88284700       0.12576700
     3  O          0.65278000       0.19461100       0.78804000
     4  O          0.34722000       0.69461100       0.21196000
     5  O          0.66608000       0.62701100       0.81694000
     6  O          0.33392000       0.12701100       0.18306000
     7  O          0.93365000       0.37761400       0.85074000
     8  O          0.06635000       0.87761400       0.14926000
     9  I          0.22512400       0.35791700       0.93412300
    10  I          0.77487600       0.85791700       0.06587700
    11  O          0.15247000       0.11531100       0.98215000
    12  O          0.84753000       0.61531100       0.01785000
    13  O          0.15107000       0.53361300       0.02894000
    14  O          0.84893000       0.03361300       0.97106000
    15  H          0.05477000       0.55461300       0.02044000
    16  H          0.94523000       0.05461300       0.97956000
    17  O          0.42776000       0.35371100       0.97744000
    18  O          0.57224000       0.85371100       0.02256000
    19  I          0.43204500       0.91368300       0.81957200
    20  I          0.56795500       0.41368300       0.18042800
    21  O          0.29907000       0.14531000       0.80574000
    22  O          0.70093000       0.64531000       0.19426000
    23  O          0.44507000       0.86478800       0.70013000
    24  O          0.55493000       0.36478800       0.29987000
    25  O          0.28107000       0.71759000       0.83994000
    26  O          0.71893000       0.21759000       0.16006000
    27  O          0.58647000       0.44681400       0.51964000
    28  O          0.41353000       0.94681400       0.48036000
    29  O          0.36797000       0.44721500       0.42654000
    30  O          0.63203000       0.94721500       0.57346000
    31  H          0.43167000       0.41771500       0.38524000
    32  H          0.56833000       0.91771500       0.61476000
    33  C          0.44599000       0.43891400       0.50654000
    34  C          0.55401000       0.93891400       0.49346000
    35  C          0.33048000       0.40291500       0.58284000
    36  C          0.66952000       0.90291500       0.41716000
    37  H          0.28658000       0.26321500       0.57704000
    38  H          0.71342000       0.76321500       0.42296000
    39  C          0.19069000       0.55781500       0.57885000
    40  C          0.80931000       0.05781500       0.42115000
    41  H          0.13889000       0.55741500       0.51925000
    42  H          0.86111000       0.05741500       0.48075000
    43  H          0.23429000       0.69631500       0.58965000
    44  H          0.76571000       0.19631500       0.41035000
    45  C          0.06501000       0.51081700       0.64876000
    46  C          0.93499000       0.01081700       0.35124000
    47  H          0.02451000       0.37011700       0.63986000
    48  H          0.97549000       0.87011700       0.36014000
    49  H          0.11531000       0.51821700       0.70866000
    50  H          0.88469000       0.01821700       0.29134000
    51  C          0.92909000       0.67301700       0.64326000
    52  C          0.07091000       0.17301700       0.35674000
    53  H          0.89829000       0.69401700       0.58036000
    54  H          0.10171000       0.19401700       0.41964000
    55  H          0.83919000       0.61271700       0.67196000
    56  H          0.16081000       0.11271700       0.32804000
    57  C          0.96561000       0.88431900       0.68615000
    58  C          0.03439000       0.38431900       0.31385000
    59  H          0.06949000       0.92991900       0.66885000
    60  H          0.93051000       0.42991900       0.33115000
    61  H          0.88831000      -0.01328100       0.66415000
    62  H          0.11169000       0.48671900       0.33585000
    63  N          0.96382000       0.87591500       0.78704000
    64  N          0.03618000       0.37591500       0.21296000
    65  H         -0.01498000       0.00361500       0.80984000
    66  H          0.01498000       0.50361500       0.19016000
    67  H          0.03798000       0.78491500       0.80824000
    68  H          0.96202000       0.28491500       0.19176000
    69  H          0.86772000       0.83401500       0.80324000
    70  H          0.13228000       0.33401500       0.19676000
    71  N          0.42388000       0.41921300       0.67004000
    72  N          0.57612000       0.91921300       0.32996000
    73  H          0.50488000       0.32801300       0.67064000
    74  H          0.49512000       0.82801300       0.32936000
    75  H          0.36108000       0.38971300       0.71534000
    76  H          0.63892000       0.88971300       0.28466000
    77  H          0.46198000       0.54991300       0.67674000
    78  H          0.53802000       0.04991300       0.32326000
