data_HISAHC11
_symmetry_space_group_name_H-M    'P1'
_symmetry_Int_Tables_number       1
loop_
_symmetry_equiv_pos_site_id
_symmetry_equiv_pos_as_xyz
1 x,y,z
_cell_length_a                   4.43582
_cell_length_b                   12.62814
_cell_length_c                   7.55883
_cell_angle_alpha                90.0
_cell_angle_beta                 91.9101
_cell_angle_gamma                90.0
loop_
_atom_site_label
_atom_site_type_symbol
_atom_site_fract_x
_atom_site_fract_y
_atom_site_fract_z
     1  Cl         0.47163800       0.32961300       0.59693500
     2  Cl         0.52836200       0.82961300       0.40306500
     3  Cl         0.43148900       0.15270300       0.11930500
     4  Cl         0.56851100       0.65270300       0.88069500
     5  N         -0.02406000       0.18301130       0.43082000
     6  N          0.02406000       0.68301130       0.56918000
     7  H          0.11560000       0.23220000       0.47230000
     8  H          0.88440000       0.73220000       0.52770000
     9  H          0.78760000       0.21720000       0.44130000
    10  H          0.21240000       0.71720000       0.55870000
    11  H          0.01560000       0.17920000       0.31640000
    12  H         -0.01560000       0.67920000       0.68360000
    13  C         -0.00095000       0.07908150       0.52362000
    14  C          0.00095000       0.57908150       0.47638000
    15  H          0.20440000       0.04970000       0.51250000
    16  H          0.79560000       0.54970000       0.48750000
    17  H          0.85300000       0.02850000       0.46900000
    18  H          0.14700000       0.52850000       0.53100000
    19  C          0.93174000       0.09457150       0.71902000
    20  C          0.06826000       0.59457150       0.28098000
    21  H          0.05300000       0.15450000       0.76690000
    22  H          0.94700000       0.65450000       0.23310000
    23  H          0.71600000       0.11270000       0.72990000
    24  H          0.28400000       0.61270000       0.27010000
    25  C          0.00194000      -0.00243130       0.82522000
    26  C         -0.00194000       0.49756870       0.17478000
    27  C          0.19834000       0.91686850       0.80242000
    28  C          0.80166000       0.41686850       0.19758000
    29  H          0.31850000       0.90550000       0.70250000
    30  H          0.68150000       0.40550000       0.29750000
    31  N          0.19043000       0.85422880       0.95191190
    32  N          0.80957000       0.35422880       0.04808810
    33  H          0.28460000       0.79380000       0.96430000
    34  H          0.71540000       0.29380000       0.03570000
    35  C         -0.00476000       0.89417850       0.06152000
    36  C          0.00476000       0.39417850       0.93848000
    37  H          0.94750000       0.86580000       0.17360000
    38  H          0.05250000       0.36580000       0.82640000
    39  N          0.87643000       0.98107880      -0.01196830
    40  N          0.12357000       0.48107880       0.01196830
    41  H          0.74560000       0.02120000       0.03140000
    42  H          0.25440000       0.52120000       0.96860000
