data_HISZEQ
_symmetry_space_group_name_H-M    'P1'
_symmetry_Int_Tables_number       1
loop_
_symmetry_equiv_pos_site_id
_symmetry_equiv_pos_as_xyz
1 x,y,z
_cell_length_a                   9.81756
_cell_length_b                   13.46648
_cell_length_c                   14.48588
_cell_angle_alpha                113.29501
_cell_angle_beta                 95.78801
_cell_angle_gamma                105.23201
loop_
_atom_site_label
_atom_site_type_symbol
_atom_site_fract_x
_atom_site_fract_y
_atom_site_fract_z
     1  C          0.78894000       0.35224000       0.20163000
     2  C          0.21106000       0.64776000       0.79837000
     3  C          0.82405000       0.43564000       0.16633000
     4  C          0.17595000       0.56436000       0.83367000
     5  C          0.72026000       0.43484000       0.09384000
     6  C          0.27974000       0.56516000       0.90616000
     7  C          0.58545000       0.35375000       0.05573000
     8  C          0.41455000       0.64625000       0.94427000
     9  C          0.55155000       0.27134000       0.09013000
    10  C          0.44845000       0.72866000       0.90987000
    11  C          0.65295000       0.27104000       0.16153000
    12  C          0.34705000       0.72896000       0.83847000
    13  F          0.74974000       0.51323000       0.05673000
    14  F          0.25026000       0.48677000       0.94327000
    15  F          0.48534000       0.35473000       0.98568000
    16  F          0.51466000       0.64527000       0.01432000
    17  F          0.41853000       0.19093000       0.05342000
    18  F          0.58147000       0.80907000       0.94658000
    19  F          0.61293000       0.18602000       0.19112000
    20  F          0.38707000       0.81398000       0.80888000
    21  I          0.92900400       0.34534300       0.31449200
    22  I          0.07099600       0.65465700       0.68550800
    23  I          0.02853400       0.55852300       0.21264300
    24  I          0.97146600       0.44147700       0.78735700
    25  C          0.37684000       0.47813000       0.59903000
    26  C          0.62316000       0.52187000       0.40097000
    27  C          0.49574000       0.50553000       0.67773000
    28  C          0.50426000       0.49447000       0.32227000
    29  C          0.60104000       0.61104000       0.71693000
    30  C          0.39896000       0.38896000       0.28307000
    31  C          0.59424000       0.69024000       0.68124000
    32  C          0.40576000       0.30976000       0.31876000
    33  C          0.47965000       0.66314000       0.60223000
    34  C          0.52035000       0.33686000       0.39777000
    35  C          0.37374000       0.55854000       0.56313000
    36  C          0.62626000       0.44146000       0.43687000
    37  F          0.71573000       0.64042000       0.79232000
    38  F          0.28427000       0.35958000       0.20768000
    39  F          0.69633000       0.79382000       0.72282000
    40  F          0.30367000       0.20618000       0.27718000
    41  F          0.47333000       0.73862000       0.56552000
    42  F          0.52667000       0.26138000       0.43448000
    43  F          0.26473000       0.53452000       0.48502000
    44  F          0.73527000       0.46548000       0.51498000
    45  I          0.20505300       0.32298200       0.53574200
    46  I          0.79494700       0.67701800       0.46425800
    47  I          0.52821300       0.39303300       0.73695300
    48  I          0.47178700       0.60696700       0.26304700
    49  C          0.74394000       0.07754000       0.94553000
    50  C          0.25606000       0.92246000       0.05447000
    51  H          0.65320000       0.02150000       0.92450000
    52  H          0.34680000       0.97850000       0.07550000
    53  C          0.85565000       0.07694000       0.01053000
    54  C          0.14435000       0.92306000      -0.01053000
    55  H          0.84040000       0.01960000       0.03250000
    56  H          0.15960000       0.98040000       0.96750000
    57  C         -0.01055000       0.16004000       0.04303000
    58  C          0.01055000       0.83996000       0.95697000
    59  H          0.06370000       0.15940000       0.08780000
    60  H          0.93630000       0.84060000       0.91220000
    61  C          0.01404000       0.24424000       0.00963000
    62  C         -0.01404000       0.75576000      -0.00963000
    63  H          0.10490000       0.30010000       0.03120000
    64  H          0.89510000       0.69990000       0.96880000
    65  C          0.90214000       0.24524000       0.94333000
    66  C          0.09786000       0.75476000       0.05667000
    67  H          0.91800000       0.30170000       0.92020000
    68  H          0.08200000       0.69830000       0.07980000
    69  C          0.76714000       0.16183000       0.91183000
    70  C          0.23286000       0.83817000       0.08817000
    71  C          0.65134000       0.16613000       0.84003000
    72  C          0.34866000       0.83387000       0.15997000
    73  C          0.40044000       0.07913000       0.75223000
    74  C          0.59956000       0.92087000       0.24777000
    75  H          0.41500000       0.14840000       0.74170000
    76  H          0.58500000       0.85160000       0.25830000
    77  C          0.26534000       0.05324000       0.79163000
    78  C          0.73466000       0.94676000       0.20837000
    79  H          0.27480000       0.11720000       0.85680000
    80  H          0.72520000       0.88280000       0.14320000
    81  H          0.25560000      -0.01370000       0.80420000
    82  H          0.74440000       0.01370000       0.19580000
    83  C          0.12874000       0.03103000       0.71583000
    84  C          0.87126000       0.96897000       0.28417000
    85  C         -0.00494000       0.97536000       0.74623000
    86  C          0.00494000       0.02464000       0.25377000
    87  H          0.90900000       0.96430000       0.70030000
    88  H          0.09100000       0.03570000       0.29970000
    89  H         -0.00440000       0.02420000       0.81580000
    90  H          0.00440000       0.97580000       0.18420000
    91  H         -0.00310000       0.90260000       0.74160000
    92  H          0.00310000       0.09740000       0.25840000
    93  C          0.11884000       0.14193000       0.71333000
    94  C          0.88116000       0.85807000       0.28667000
    95  H          0.20830000       0.18210000       0.70360000
    96  H          0.79170000       0.81790000       0.29640000
    97  H          0.10120000       0.18940000       0.77740000
    98  H          0.89880000       0.81060000       0.22260000
    99  H          0.04060000       0.12340000       0.65740000
   100  H          0.95940000       0.87660000       0.34260000
   101  C          0.26134000       0.94957000       0.56713000
   102  C          0.73866000       0.05043000       0.43287000
   103  C          0.23155000       0.83006000       0.48093000
   104  C          0.76845000       0.16994000       0.51907000
   105  H          0.20700000       0.77460000       0.50770000
   106  H          0.79300000       0.22540000       0.49230000
   107  H          0.31650000       0.82680000       0.45410000
   108  H          0.68350000       0.17320000       0.54590000
   109  H          0.15220000       0.81380000       0.42660000
   110  H          0.84780000       0.18620000       0.57340000
   111  C          0.28904000       0.03714000       0.52293000
   112  C          0.71096000       0.96286000       0.47707000
   113  H          0.20110000       0.02500000       0.47820000
   114  H          0.79890000       0.97500000       0.52180000
   115  H          0.36260000       0.02820000       0.48440000
   116  H          0.63740000       0.97180000       0.51560000
   117  H          0.32080000       0.11310000       0.57840000
   118  H          0.67920000       0.88690000       0.42160000
   119  C          0.38894000       0.97786000       0.65303000
   120  C          0.61106000       0.02214000       0.34697000
   121  H          0.37890000       0.91150000       0.66640000
   122  H          0.62110000       0.08850000       0.33360000
   123  H          0.47800000      -0.00620000       0.62990000
   124  H          0.52200000       0.00620000       0.37010000
   125  N          0.12923000       0.94857000       0.61012000
   126  N          0.87077000       0.05143000       0.38988000
   127  O          0.66993000       0.22763000       0.79773000
   128  O          0.33007000       0.77237000       0.20227000
   129  O          0.52203000       0.09412000       0.82932000
   130  O          0.47797000       0.90588000       0.17068000
   131  O          0.00703000       0.89988000       0.54362000
   132  O         -0.00703000       0.10012000       0.45638000
