data_HISZIU
_symmetry_space_group_name_H-M    'P1'
_symmetry_Int_Tables_number       1
loop_
_symmetry_equiv_pos_site_id
_symmetry_equiv_pos_as_xyz
1 x,y,z
_cell_length_a                   20.406514
_cell_length_b                   6.30854
_cell_length_c                   19.130614
_cell_angle_alpha                90.0
_cell_angle_beta                 90.0
_cell_angle_gamma                90.0
loop_
_atom_site_label
_atom_site_type_symbol
_atom_site_fract_x
_atom_site_fract_y
_atom_site_fract_z
     1  C          0.57782180       0.05416000       0.21083190
     2  C          0.42217820       0.94584000       0.71083190
     3  C          0.92217820       0.05416000       0.71083190
     4  C          0.07782180       0.94584000       0.21083190
     5  C          0.62955190       0.96146000       0.24493000
     6  C          0.37044810       0.03854000       0.74493000
     7  C          0.87044810       0.96146000       0.74493000
     8  C          0.12955190       0.03854000       0.24493000
     9  C          0.66222000       0.79077000       0.21632000
    10  C          0.33778000       0.20923000       0.71632000
    11  C          0.83778000       0.79077000       0.71632000
    12  C          0.16222000       0.20923000       0.21632000
    13  C          0.64296180       0.70166000       0.15412000
    14  C          0.35703820       0.29834000       0.65412000
    15  C          0.85703820       0.70166000       0.65412000
    16  C          0.14296180       0.29834000       0.15412000
    17  C          0.58972000       0.79126000       0.12182000
    18  C          0.41028000       0.20874000       0.62182000
    19  C          0.91028000       0.79126000       0.62182000
    20  C          0.08972000       0.20874000       0.12182000
    21  C          0.55822000       0.96436000       0.14922000
    22  C          0.44178000       0.03564000       0.64922000
    23  C          0.94178000       0.96436000       0.64922000
    24  C          0.05822000       0.03564000       0.14922000
    25  F          0.65067150       0.03815000       0.30665160
    26  F          0.34932850       0.96185000       0.80665160
    27  F          0.84932850       0.03815000       0.80665160
    28  F          0.15067150       0.96185000       0.30665160
    29  F          0.71213130       0.70535000       0.25242000
    30  F          0.28786870       0.29465000       0.75242000
    31  F          0.78786870       0.70535000       0.75242000
    32  F          0.21213130       0.29465000       0.25242000
    33  F          0.56682150       0.71024000       0.06153140
    34  F          0.43317850       0.28976000       0.56153140
    35  F          0.93317850       0.71024000       0.56153140
    36  F          0.06682150       0.28976000       0.06153140
    37  F          0.50715140       0.04644000       0.11361160
    38  F          0.49284860       0.95356000       0.61361160
    39  F          0.99284860       0.04644000       0.61361160
    40  F          0.00715140       0.95356000       0.11361160
    41  I          0.53334412       0.32734300       0.24970316
    42  I          0.46665588       0.67265700       0.74970316
    43  I          0.96665588       0.32734300       0.74970316
    44  I          0.03334412       0.67265700       0.24970316
    45  I          0.69044612       0.44102400       0.11031315
    46  I          0.30955388       0.55897600       0.61031315
    47  I          0.80955388       0.44102400       0.61031315
    48  I          0.19044612       0.55897600       0.11031315
    49  C          0.18272000       0.39477000       0.44482000
    50  C          0.81728000       0.60523000       0.94482000
    51  C          0.31728000       0.39477000       0.94482000
    52  C          0.68272000       0.60523000       0.44482000
    53  H          0.20680000       0.39510000       0.40360000
    54  H          0.79320000       0.60490000       0.90360000
    55  H          0.29320000       0.39510000       0.90360000
    56  H          0.70680000       0.60490000       0.40360000
    57  C          0.13773000       0.55658000       0.45803000
    58  C          0.86227000       0.44342000       0.95803000
    59  C          0.36227000       0.55658000       0.95803000
    60  C          0.63773000       0.44342000       0.45803000
    61  H          0.13210000       0.66460000       0.42550000
    62  H          0.86790000       0.33540000       0.92550000
    63  H          0.36790000       0.66460000       0.92550000
    64  H          0.63210000       0.33540000       0.42550000
    65  C          0.10212000       0.55728000       0.51803000
    66  C          0.89788000       0.44272000       0.01803000
    67  C          0.39788000       0.55728000       0.01803000
    68  C          0.60212000       0.44272000       0.51803000
    69  H          0.07320000       0.66760000       0.52710000
    70  H          0.92680000       0.33240000       0.02710000
    71  H          0.42680000       0.66760000       0.02710000
    72  H          0.57320000       0.33240000       0.52710000
    73  C          0.10892000       0.39669000       0.56453000
    74  C          0.89108000       0.60331000       0.06453000
    75  C          0.39108000       0.39669000       0.06453000
    76  C          0.60892000       0.60331000       0.56453000
    77  H          0.08310000       0.39370000       0.60450000
    78  H          0.91690000       0.60630000       0.10450000
    79  H          0.41690000       0.39370000       0.10450000
    80  H          0.58310000       0.60630000       0.60450000
    81  C          0.15392000       0.23788000       0.55262000
    82  C          0.84608000       0.76212000       0.05262000
    83  C          0.34608000       0.23788000       0.05262000
    84  C          0.65392000       0.76212000       0.55262000
    85  H          0.15910000       0.13070000       0.58550000
    86  H          0.84090000       0.86930000       0.08550000
    87  H          0.34090000       0.13070000       0.08550000
    88  H          0.65910000       0.86930000       0.58550000
    89  C          0.19140170       0.23506000       0.49252000
    90  C          0.80859830       0.76494000       0.99252000
    91  C          0.30859830       0.23506000       0.99252000
    92  C          0.69140170       0.76494000       0.49252000
    93  C          0.24122190       0.06676000       0.48272000
    94  C          0.75877810       0.93324000       0.98272000
    95  C          0.25877810       0.06676000       0.98272000
    96  C          0.74122190       0.93324000       0.48272000
    97  C          0.31768180       0.91856000       0.40082000
    98  C          0.68231820       0.08144000       0.90082000
    99  C          0.18231820       0.91856000       0.90082000
   100  C          0.81768180       0.08144000       0.40082000
   101  H          0.30440000       0.77850000       0.41790000
   102  H          0.69560000       0.22150000       0.91790000
   103  H          0.19560000       0.77850000       0.91790000
   104  H          0.80440000       0.22150000       0.41790000
   105  C          0.38423190      -0.02124000       0.42932000
   106  C          0.61576810       0.02124000       0.92932000
   107  C          0.11576810      -0.02124000       0.92932000
   108  C          0.88423190       0.02124000       0.42932000
   109  H          0.38240000       0.97570000       0.47990000
   110  H          0.61760000       0.02430000       0.97990000
   111  H          0.11760000       0.97570000       0.97990000
   112  H          0.88240000       0.02430000       0.47990000
   113  H          0.39400000       0.12300000       0.41520000
   114  H          0.60600000       0.87700000       0.91520000
   115  H          0.10600000       0.12300000       0.91520000
   116  H          0.89400000       0.87700000       0.41520000
   117  C          0.43990190       0.83506000       0.40502000
   118  C          0.56009810       0.16494000       0.90502000
   119  C          0.06009810       0.83506000       0.90502000
   120  C          0.93990190       0.16494000       0.40502000
   121  C          0.43712000       0.61957000       0.44213000
   122  C          0.56288000       0.38043000       0.94213000
   123  C          0.06288000       0.61957000       0.94213000
   124  C          0.93712000       0.38043000       0.44213000
   125  H          0.39380000       0.56140000       0.43790000
   126  H          0.60620000       0.43860000       0.93790000
   127  H          0.10620000       0.56140000       0.93790000
   128  H          0.89380000       0.43860000       0.43790000
   129  H          0.44760000       0.63760000       0.49070000
   130  H          0.55240000       0.36240000       0.99070000
   131  H          0.05240000       0.63760000       0.99070000
   132  H          0.94760000       0.36240000       0.49070000
   133  H          0.46810000       0.52460000       0.42100000
   134  H          0.53190000       0.47540000       0.92100000
   135  H          0.03190000       0.52460000       0.92100000
   136  H          0.96810000       0.47540000       0.42100000
   137  C          0.50522000       0.93987000       0.42002000
   138  C          0.49478000       0.06013000       0.92002000
   139  C         -0.00522000       0.93987000       0.92002000
   140  C          0.00522000       0.06013000       0.42002000
   141  H          0.54010000       0.84760000       0.40550000
   142  H          0.45990000       0.15240000       0.90550000
   143  H          0.95990000       0.84760000       0.90550000
   144  H          0.04010000       0.15240000       0.40550000
   145  H          0.50890000       0.96700000       0.46920000
   146  H          0.49110000       0.03300000       0.96920000
   147  H          0.99110000       0.96700000       0.96920000
   148  H          0.00890000       0.03300000       0.46920000
   149  H          0.50800000       0.07100000       0.39480000
   150  H          0.49200000       0.92900000       0.89480000
   151  H          0.99200000       0.07100000       0.89480000
   152  H          0.00800000       0.92900000       0.39480000
   153  C          0.37062000       0.77326000       0.29042000
   154  C          0.62938000       0.22674000       0.79042000
   155  C          0.12938000       0.77326000       0.79042000
   156  C          0.87062000       0.22674000       0.29042000
   157  C          0.38163000       0.83749000       0.21473000
   158  C          0.61837000       0.16251000       0.71473000
   159  C          0.11837000       0.83749000       0.71473000
   160  C          0.88163000       0.16251000       0.21473000
   161  H          0.39860000      -0.02080000       0.21300000
   162  H          0.60140000       0.02080000       0.71300000
   163  H          0.10140000      -0.02080000       0.71300000
   164  H          0.89860000       0.02080000       0.21300000
   165  H          0.34080000       0.83150000       0.18990000
   166  H          0.65920000       0.16850000       0.68990000
   167  H          0.15920000       0.83150000       0.68990000
   168  H          0.84080000       0.16850000       0.18990000
   169  H          0.41230000       0.74200000       0.19340000
   170  H          0.58770000       0.25800000       0.69340000
   171  H          0.08770000       0.74200000       0.69340000
   172  H          0.91230000       0.25800000       0.19340000
   173  C          0.34872000       0.54117000       0.29423000
   174  C          0.65128000       0.45883000       0.79423000
   175  C          0.15128000       0.54117000       0.79423000
   176  C          0.84872000       0.45883000       0.29423000
   177  H          0.38330000       0.45140000       0.27740000
   178  H          0.61670000       0.54860000       0.77740000
   179  H          0.11670000       0.45140000       0.77740000
   180  H          0.88330000       0.54860000       0.27740000
   181  H          0.31040000       0.52160000       0.26580000
   182  H          0.68960000       0.47840000       0.76580000
   183  H          0.18960000       0.52160000       0.76580000
   184  H          0.81040000       0.47840000       0.26580000
   185  H          0.33870000       0.50500000       0.34180000
   186  H          0.66130000       0.49500000       0.84180000
   187  H          0.16130000       0.50500000       0.84180000
   188  H          0.83870000       0.49500000       0.34180000
   189  C          0.31962000       0.92207000       0.32252000
   190  C          0.68038000       0.07793000       0.82252000
   191  C          0.18038000       0.92207000       0.82252000
   192  C          0.81962000       0.07793000       0.32252000
   193  H          0.32870000       0.06560000       0.30720000
   194  H          0.67130000       0.93440000       0.80720000
   195  H          0.17130000       0.06560000       0.80720000
   196  H          0.82870000       0.93440000       0.30720000
   197  H          0.27660000       0.88330000       0.30490000
   198  H          0.72340000       0.11670000       0.80490000
   199  H          0.22340000       0.88330000       0.80490000
   200  H          0.77660000       0.11670000       0.30490000
   201  N          0.43365150       0.79915000       0.32831160
   202  N          0.56634850       0.20085000       0.82831160
   203  N          0.06634850       0.79915000       0.82831160
   204  N          0.93365150       0.20085000       0.32831160
   205  O          0.25392160       0.93435000       0.52561170
   206  O          0.74607840       0.06565000       0.02561170
   207  O          0.24607840       0.93435000       0.02561170
   208  O          0.75392160       0.06565000       0.52561170
   209  O          0.26925140       0.07825000       0.41960150
   210  O          0.73074860       0.92175000       0.91960150
   211  O          0.23074860       0.07825000       0.91960150
   212  O          0.76925140       0.92175000       0.41960150
   213  O          0.48463150       0.72565000       0.29745170
   214  O          0.51536850       0.27435000       0.79745170
   215  O          0.01536850       0.72565000       0.79745170
   216  O          0.98463150       0.27435000       0.29745170
