data_HITZUJ
_symmetry_space_group_name_H-M    'P1'
_symmetry_Int_Tables_number       1
loop_
_symmetry_equiv_pos_site_id
_symmetry_equiv_pos_as_xyz
1 x,y,z
_cell_length_a                   8.07635
_cell_length_b                   15.642911
_cell_length_c                   17.866812
_cell_angle_alpha                73.5932
_cell_angle_beta                 87.0482
_cell_angle_gamma                88.2702
loop_
_atom_site_label
_atom_site_type_symbol
_atom_site_fract_x
_atom_site_fract_y
_atom_site_fract_z
     1  I          0.47423400       0.71622200       0.06585200
     2  I          0.52576600       0.28377800       0.93414800
     3  I          0.45686400       0.47739200       0.37631200
     4  I          0.54313600       0.52260800       0.62368800
     5  F          0.16475000       0.84473000       0.69838000
     6  F          0.83525000       0.15527000       0.30162000
     7  F          0.41764000       0.85282000       0.65698820
     8  F          0.58236000       0.14718000       0.34301180
     9  F          0.29305000       0.72843000       0.68158000
    10  F          0.70695000       0.27157000       0.31842000
    11  F          0.94606000       0.15952000       0.11571180
    12  F          0.05394000       0.84048000       0.88428820
    13  F          0.16244000       0.16102000       0.04162000
    14  F          0.83756000       0.83898000       0.95838000
    15  F          0.95426000       0.24502000      -0.00212180
    16  F          0.04574000       0.75498000       0.00212180
    17  F          0.21746000       0.04403000       0.57863000
    18  F          0.78254000       0.95597000       0.42137000
    19  F          0.48036000       0.02782000       0.57212000
    20  F          0.51964000       0.97218000       0.42788000
    21  F          0.36335000       0.06672000       0.66672180
    22  F          0.63665000       0.93328000       0.33327820
    23  N          0.35247000       0.47613000       0.16503000
    24  N          0.64753000       0.52387000       0.83497000
    25  H          0.37570000       0.52720000       0.13230000
    26  H          0.62430000       0.47280000       0.86770000
    27  H          0.38911000       0.46460000       0.21120000
    28  H          0.61089000       0.53540000       0.78880000
    29  C          0.43356000       0.74053000       0.94647000
    30  C          0.56644000       0.25947000       0.05353000
    31  C          0.47046000       0.82314000       0.89517000
    32  C          0.52954000       0.17686000       0.10483000
    33  H          0.52086000       0.86684300       0.91376600
    34  H          0.47914000       0.13315700       0.08623400
    35  C          0.43446000       0.84223000       0.81727000
    36  C          0.56554000       0.15777000       0.18273000
    37  H          0.45948900       0.89903400       0.78254800
    38  H          0.54051100       0.10096600       0.21745200
    39  C          0.36146000       0.77814000       0.78997000
    40  C          0.63854000       0.22186000       0.21003000
    41  C          0.32646000       0.69484000       0.83967000
    42  C          0.67354000       0.30516000       0.16033000
    43  H          0.27887600       0.65100500       0.82019600
    44  H          0.72112400       0.34899500       0.17980400
    45  C          0.36146000       0.67493000       0.91947000
    46  C          0.63854000       0.32507000       0.08053000
    47  C          0.31756000       0.58934000       0.96987000
    48  C          0.68244000       0.41066000       0.03013000
    49  C          0.27506000       0.51694000       0.00853000
    50  C          0.72494000       0.48306000       0.99147000
    51  C          0.23256000       0.43233000       0.06113000
    52  C          0.76744000       0.56767000       0.93887000
    53  C          0.27336000       0.41513000       0.14033000
    54  C          0.72664000       0.58487000       0.85967000
    55  C          0.15426000       0.36803000       0.03623000
    56  C          0.84574000       0.63197000       0.96377000
    57  H          0.12787300       0.37993800       0.98292800
    58  H          0.87212700       0.62006200       0.01707200
    59  C          0.11406000       0.28623000       0.08853000
    60  C          0.88594000       0.71377000       0.91147000
    61  C          0.14996000       0.26933000       0.16673000
    62  C          0.85004000       0.73067000       0.83327000
    63  H          0.12045000       0.21383700       0.20247300
    64  H          0.87955000       0.78616300       0.79752700
    65  C          0.22806000       0.33213000       0.19323000
    66  C          0.77194000       0.66787000       0.80677000
    67  C          0.26617000       0.31453000       0.27323000
    68  C          0.73383000       0.68547000       0.72677000
    69  C          0.30477000       0.30393000       0.33933000
    70  C          0.69523000       0.69607000       0.66067000
    71  C          0.35146000       0.28363000       0.41813000
    72  C          0.64854000       0.71637000       0.58187000
    73  C          0.42006000       0.34763000       0.44863000
    74  C          0.57994000       0.65237000       0.55137000
    75  C          0.46366000       0.32364000       0.52623000
    76  C          0.53634000       0.67636000       0.47377000
    77  H          0.50805000       0.36707600       0.54710200
    78  H          0.49195000       0.63292400       0.45289800
    79  C          0.44316000       0.23744000       0.57353000
    80  C          0.55684000       0.76256000       0.42647000
    81  H          0.47415800       0.22167600       0.62625500
    82  H          0.52584200       0.77832400       0.37374500
    83  C          0.37676000       0.17403000       0.54303000
    84  C          0.62324000       0.82597000       0.45697000
    85  C          0.33087000       0.19723000       0.46613000
    86  C          0.66913000       0.80277000       0.53387000
    87  H          0.28472000       0.15352700       0.44587400
    88  H          0.71528000       0.84647300       0.55412600
    89  C          0.30937000       0.80014000       0.70737000
    90  C          0.69063000       0.19986000       0.29263000
    91  C          0.04326000       0.21443000       0.06123000
    92  C          0.95674000       0.78557000       0.93877000
    93  C          0.35838000       0.07864000       0.58963000
    94  C          0.64162000       0.92136000       0.41037000
    95  Cl         0.50100150       0.67790800       0.25748700
    96  Cl         0.49899850       0.32209200       0.74251300
    97  N         -0.00165000       0.78353000       0.24403000
    98  N          0.00165000       0.21647000       0.75597000
    99  C          0.84737000       0.83464000       0.20504000
   100  C          0.15263000       0.16536000       0.79496000
   101  H          0.76650000       0.79063800       0.19958800
   102  H          0.23350000       0.20936200       0.80041200
   103  H          0.79484900       0.86673000       0.24079100
   104  H          0.20515100       0.13327000       0.75920900
   105  C          0.87538000       0.90125000       0.12604000
   106  C          0.12462000       0.09875000       0.87396000
   107  H          0.92713100       0.87041300       0.08908900
   108  H          0.07286900       0.12958700       0.91091100
   109  H          0.95261700       0.94722800       0.13044700
   110  H          0.04738300       0.05277200       0.86955300
   111  C          0.71398000       0.94584000       0.09395000
   112  C          0.28602000       0.05416000       0.90605000
   113  H          0.63957700       0.89991900       0.08656200
   114  H          0.36042300       0.10008100       0.91343800
   115  H          0.65857600       0.97278100       0.13272800
   116  H          0.34142400       0.02721900       0.86727200
   117  C          0.73799000       0.01705000       0.01745000
   118  C          0.26201000       0.98295000       0.98255000
   119  H          0.80449500       0.06490700       0.02508700
   120  H          0.19550500       0.93509300       0.97491300
   121  H          0.62959800       0.04108600      -0.00152000
   122  H          0.37040200       0.95891400       0.00152000
   123  H          0.79517300       0.99116300       0.97903800
   124  H          0.20482700       0.00883700       0.02096200
   125  C          0.13907000       0.84564000       0.24333000
   126  C          0.86093000       0.15436000       0.75667000
   127  H          0.16933800       0.87797900       0.18841700
   128  H          0.83066200       0.12202100       0.81158300
   129  H          0.23678800       0.80939700       0.26550800
   130  H          0.76321200       0.19060300       0.73449200
   131  C          0.10018000       0.91374000       0.28874000
   132  C          0.89982000       0.08626000       0.71126000
   133  H         -0.00904500       0.94234300       0.27406200
   134  H          0.00904500       0.05765700       0.72593800
   135  H          0.09335200       0.88280400       0.34533000
   136  H          0.90664800       0.11719600       0.65467000
   137  C          0.23147000       0.98474000       0.27234000
   138  C          0.76853000       0.01526000       0.72766000
   139  H          0.22809000       0.02090100       0.21707400
   140  H          0.77191000       0.97909900       0.78292600
   141  H          0.34230200       0.95579900       0.28033000
   142  H          0.65769800       0.04420100       0.71967000
   143  C          0.20448000       0.04514000       0.32524000
   144  C          0.79552000       0.95486000       0.67476000
   145  H          0.29053200       0.09040400       0.31307000
   146  H          0.70946800       0.90959600       0.68693000
   147  H          0.21002800       0.00959100       0.37981500
   148  H          0.78997200       0.99040900       0.62018500
   149  H          0.09514600       0.07436400       0.31681300
   150  H          0.90485400       0.92563600       0.68318700
   151  C          0.94307000       0.73484000       0.32674000
   152  C          0.05693000       0.26516000       0.67326000
   153  H          0.85282700       0.69418100       0.32450100
   154  H          0.14717300       0.30581900       0.67549900
   155  H          0.89520200       0.77918500       0.35207200
   156  H          0.10479800       0.22081500       0.64792800
   157  C          0.07378000       0.68085000       0.37843000
   158  C          0.92622000       0.31915000       0.62157000
   159  H          0.16577100       0.71951800       0.38222900
   160  H          0.83422900       0.28048200       0.61777100
   161  H          0.11907300       0.63302400       0.35653400
   162  H          0.88092700       0.36697600       0.64346600
   163  C         -0.00898800       0.64096000       0.45824000
   164  C          0.00898800       0.35904000       0.54176000
   165  H          0.92917800       0.68879800       0.47452100
   166  H          0.07082200       0.31120200       0.52547900
   167  H          0.90934300       0.59674800       0.45398600
   168  H          0.09065700       0.40325200       0.54601400
   169  C          0.10101100       0.59898000       0.51705000
   170  C          0.89898900       0.40102000       0.48295000
   171  H          0.17755200       0.55936300       0.49756900
   172  H          0.82244800       0.44063700       0.50243100
   173  H          0.03767000       0.56388400       0.56317900
   174  H          0.96233000       0.43611600       0.43682100
   175  H          0.16418200       0.64417500       0.53100300
   176  H          0.83581800       0.35582500       0.46899700
   177  C          0.06707000       0.71894000       0.19904000
   178  C          0.93293000       0.28106000       0.80096000
   179  H          0.10374600       0.75488900       0.14605500
   180  H          0.89625400       0.24511100       0.85394500
   181  H          0.16695300       0.68922900       0.22515700
   182  H          0.83304700       0.31077100       0.77484300
   183  C          0.95489000       0.64685000       0.18974000
   184  C          0.04511000       0.35315000       0.81026000
   185  H          0.83982600       0.67094300       0.18622600
   186  H          0.16017400       0.32905700       0.81377400
   187  H         -0.01401800       0.63520000       0.13911300
   188  H          0.01401800       0.36480000       0.86088700
   189  C          0.95411100       0.56206000       0.24955000
   190  C          0.04588900       0.43794000       0.75045000
   191  H          0.89136400       0.56806600       0.29689500
   192  H          0.10863600       0.43193400       0.70310500
   193  H          0.06920900       0.54325600       0.26371500
   194  H          0.93079100       0.45674400       0.73628500
   195  C          0.87131000       0.48985000       0.21807000
   196  C          0.12869000       0.51015000       0.78193000
   197  H          0.75611700       0.50756000       0.20599300
   198  H          0.24388300       0.49244000       0.79400700
   199  H          0.87373800       0.43208900       0.25791300
   200  H          0.12626200       0.56791100       0.74208700
   201  H          0.93263800       0.48489400       0.17061000
   202  H          0.06736200       0.51510600       0.82939000
