data_HIVGAW
_symmetry_space_group_name_H-M    'P1'
_symmetry_Int_Tables_number       1
loop_
_symmetry_equiv_pos_site_id
_symmetry_equiv_pos_as_xyz
1 x,y,z
_cell_length_a                   8.2679113
_cell_length_b                   11.4175417
_cell_length_c                   11.7365617
_cell_angle_alpha                90.0
_cell_angle_beta                 88.778314
_cell_angle_gamma                90.0
loop_
_atom_site_label
_atom_site_type_symbol
_atom_site_fract_x
_atom_site_fract_y
_atom_site_fract_z
     1  O          0.67956180       0.49475120       0.67228110
     2  O          0.32043820      -0.00524880       0.32771890
     3  O          0.80884160       0.42579130       0.81844110
     4  O          0.19115840       0.92579130       0.18155890
     5  O          0.73919160       0.03180110       0.68659100
     6  O          0.26080840       0.53180110       0.31340900
     7  O          0.84962150       0.13743120       0.81902100
     8  O          0.15037850       0.63743120       0.18097900
     9  O          0.32665170       0.48362120       0.56809110
    10  O          0.67334830       0.98362120       0.43190890
    11  O          0.12440170       0.49430120       0.68986120
    12  O          0.87559830      -0.00569880       0.31013880
    13  O          0.13616160      -0.01119110       0.68363110
    14  O          0.86383840       0.48880890       0.31636890
    15  O          0.35563180      -0.00388120       0.57764120
    16  O          0.64436820       0.49611880       0.42235880
    17  O          0.09836160       0.45399120       0.96803120
    18  O          0.90163840       0.95399120       0.03196880
    19  O          0.29263170       0.41454110       0.08521100
    20  O          0.70736830       0.91454110       0.91478900
    21  O          0.29657180       0.96402890       0.91388120
    22  O          0.70342820       0.46402890       0.08611880
    23  O          0.45981170       0.04646120       0.03486110
    24  O          0.54018830       0.54646120       0.96513890
    25  N          0.56639160       0.35348120       0.77638110
    26  N          0.43360840       0.85348120       0.22361890
    27  N          0.58114160       0.15266120       0.79084110
    28  N          0.41885840       0.65266120       0.20915890
    29  N          0.29836160       0.34517110       0.70067110
    30  N          0.70163840       0.84517110       0.29932890
    31  N          0.31849160       0.12862110       0.71370110
    32  N          0.68150840       0.62862110       0.28629890
    33  N          0.31370160       0.35161120       0.90477110
    34  N          0.68629840       0.85161120       0.09522890
    35  N          0.32042170       0.15696110       0.91812110
    36  N          0.67957830       0.65696110       0.08187890
    37  N          0.69574170       0.42864130       0.75329120
    38  N          0.30425830       0.92864130       0.24670880
    39  N          0.73709160       0.10474120       0.76163110
    40  N          0.26290840       0.60474120       0.23836890
    41  N          0.24758180       0.44944120       0.65007120
    42  N          0.75241820       0.94944120       0.34992880
    43  N          0.26741180       0.03016120       0.65482120
    44  N          0.73258820       0.53016120       0.34517880
    45  N          0.22679170       0.40971120      -0.00640890
    46  N          0.77320830       0.90971120       0.00640890
    47  N          0.36281170       0.04859120       0.95722110
    48  N          0.63718830       0.54859120       0.04277890
    49  C          0.46660190       0.31266130       0.68318120
    50  C          0.53339810       0.81266130       0.31681880
    51  H          0.51230000       0.33620000       0.61020000
    52  H          0.48770000       0.83620000       0.38980000
    53  C          0.47782180       0.17487130       0.69206120
    54  C          0.52217820       0.67487130       0.30793880
    55  H          0.52530000       0.14520000       0.62520000
    56  H          0.47470000       0.64520000       0.37480000
    57  C          0.58162170       0.26031130       0.85965120
    58  C          0.41837830       0.76031130       0.14034880
    59  H          0.68130000       0.26520000       0.89861700
    60  H          0.31870000       0.76520000       0.10138300
    61  C          0.22000190       0.30911130       0.80724120
    62  C          0.77999810       0.80911130       0.19275880
    63  H          0.11130000       0.33120000       0.81661800
    64  H          0.88870000       0.83120000       0.18338200
    65  C          0.23058180       0.17084130       0.81342120
    66  C          0.76941820       0.67084130       0.18657880
    67  H          0.12730000       0.12861900       0.81641600
    68  H          0.87270000       0.62861900       0.18358400
    69  C          0.42292180       0.25896130       0.93923120
    70  C          0.57707820       0.75896130       0.06076880
    71  H          0.46130000       0.26920000       0.01551800
    72  H          0.53870000       0.76920000       0.98448200
    73  O         -0.01091850       0.20207110       0.03109900
    74  O          0.01091850       0.70207110       0.96890100
    75  O          0.45796140       0.24847130       0.31930100
    76  O          0.54203860       0.74847130       0.68069900
    77  O          0.98108150       0.24840130       0.60209900
    78  O          0.01891850       0.74840130       0.39790100
    79  N          0.08198180       0.21630170       0.31637120
    80  N          0.91801820       0.71630170       0.68362880
    81  H          0.17140000       0.19230000       0.31930000
    82  H          0.82860000       0.69230000       0.68070000
    83  N          0.09846180       0.19943140       0.11956120
    84  N          0.90153820       0.69943140       0.88043880
    85  N          0.83451180       0.21702130       0.07098110
    86  N          0.16548820       0.71702130       0.92901890
    87  N          0.55310170       0.24121150       0.22164110
    88  N          0.44689830       0.74121150       0.77835890
    89  N          0.55055170       0.24783140       0.41574110
    90  N          0.44944830       0.74783140       0.58425890
    91  N          0.82631170       0.25369130       0.56223110
    92  N          0.17368830       0.75369130       0.43776890
    93  N          0.09333180       0.23272150       0.51293110
    94  N          0.90666820       0.73272150       0.48706890
    95  C          0.00973190       0.21377140       0.21245130
    96  C         -0.00973190       0.71377140       0.78754870
    97  C          0.84340190       0.22436130       0.18215120
    98  C          0.15659810       0.72436130       0.81784880
    99  C          0.70249180       0.23638140       0.25681120
   100  C          0.29750820       0.73638140       0.74318880
   101  C          0.70037180       0.24160140       0.37802120
   102  C          0.29962820       0.74160140       0.62197880
   103  C          0.83951180       0.24191140       0.45152120
   104  C          0.16048820       0.74191140       0.54847880
   105  C          0.00728190       0.22949150       0.42032130
   106  C         -0.00728190       0.72949150       0.57967870
