data_HIXWAP
_symmetry_space_group_name_H-M    'P1'
_symmetry_Int_Tables_number       1
loop_
_symmetry_equiv_pos_site_id
_symmetry_equiv_pos_as_xyz
1 x,y,z
_cell_length_a                   8.65918
_cell_length_b                   9.71788
_cell_length_c                   13.037515
_cell_angle_alpha                93.5905
_cell_angle_beta                 96.0315
_cell_angle_gamma                114.6485
loop_
_atom_site_label
_atom_site_type_symbol
_atom_site_fract_x
_atom_site_fract_y
_atom_site_fract_z
     1  I          0.04255200       0.22456200       0.25394200
     2  I          0.95744800       0.77543800       0.74605800
     3  I          0.76170200       0.33566200       0.39335200
     4  I          0.23829800       0.66433800       0.60664800
     5  S         -0.00521200       0.53642700       0.23363500
     6  S          0.00521200       0.46357300       0.76636500
     7  O          0.87082000       0.45462000       0.14377150
     8  O          0.12918000       0.54538000       0.85622850
     9  O         -0.02188000       0.66062000       0.29034160
    10  O          0.02188000       0.33938000       0.70965840
    11  C         -0.00437000       0.40573000       0.32492000
    12  C          0.00437000       0.59427000       0.67508000
    13  H          0.09330000       0.46340000       0.38180000
    14  H          0.90670000       0.53660000       0.61820000
    15  C          0.20193000       0.60623000       0.19802000
    16  C          0.79807000       0.39377000       0.80198000
    17  C          0.22753000       0.55073000       0.10382000
    18  C          0.77247000       0.44927000       0.89618000
    19  H          0.13370000       0.47560000       0.05760000
    20  H          0.86630000       0.52440000       0.94240000
    21  C          0.39193000       0.60633000       0.07822000
    22  C          0.60807000       0.39367000       0.92178000
    23  H          0.41010000       0.56980000       0.01340000
    24  H          0.58990000       0.43020000       0.98660000
    25  C          0.53143000       0.71483000       0.14562000
    26  C          0.46857000       0.28517000       0.85438000
    27  C          0.50173000       0.77043000       0.23832000
    28  C          0.49827000       0.22957000       0.76168000
    29  H          0.59540000       0.84660000       0.28380000
    30  H          0.40460000       0.15340000       0.71620000
    31  C          0.33803000       0.71723000       0.26632000
    32  C          0.66197000       0.28277000       0.73368000
    33  H          0.31930000       0.75550000       0.33030000
    34  H          0.68070000       0.24450000       0.66970000
    35  C          0.71193000       0.77024000       0.11953000
    36  C          0.28807000       0.22976000       0.88047000
    37  H          0.77240000       0.88090000       0.13770000
    38  H          0.22760000       0.11910000       0.86230000
    39  H          0.70750000       0.74510000       0.04500000
    40  H          0.29250000       0.25490000       0.95500000
    41  H          0.77280000       0.72060000       0.15890000
    42  H          0.22720000       0.27940000       0.84110000
    43  N          0.20103000       0.04923000       0.15002190
    44  N          0.79897000       0.95077000       0.84997810
    45  C          0.43793000       0.00933000       0.03252000
    46  C          0.56207000      -0.00933000       0.96748000
    47  C          0.26623000       0.90417000       0.01942000
    48  C          0.73377000       0.09583000       0.98058000
    49  H          0.22570000       0.81630000       0.97000000
    50  H          0.77430000       0.18370000       0.03000000
    51  C          0.36604000       0.14774000       0.16372000
    52  C          0.63396000       0.85226000       0.83628000
    53  H          0.40260000       0.23350000       0.21460000
    54  H          0.59740000       0.76650000       0.78540000
    55  C          0.15453000       0.92887000       0.07932000
    56  C          0.84547000       0.07113000       0.92068000
    57  H          0.03800000       0.85570000       0.06910000
    58  H          0.96200000       0.14430000       0.93090000
    59  C          0.48823000       0.13333000       0.10822000
    60  C          0.51177000       0.86667000       0.89178000
    61  H          0.60440000       0.20700000       0.12180000
    62  H          0.39560000       0.79300000       0.87820000
    63  N          0.43603000       0.21923000       0.46932000
    64  N          0.56397000       0.78077000       0.53068000
    65  C          0.35074000       0.07613000       0.43093000
    66  C          0.64926000       0.92387000       0.56907000
    67  H          0.40990000       0.03120000       0.39360000
    68  H          0.59010000       0.96880000       0.60640000
    69  C          0.18254000      -0.01493000       0.44003000
    70  C          0.81746000       0.01493000       0.55997000
    71  H          0.12930000       0.88180000       0.40960000
    72  H          0.87070000       0.11820000       0.59040000
    73  C          0.09183000       0.04583000       0.49412000
    74  C          0.90817000       0.95417000       0.50588000
    75  C          0.18043000       0.19853000       0.53582000
    76  C          0.81957000       0.80147000       0.46418000
    77  H          0.12520000       0.24680000       0.57390000
    78  H          0.87480000       0.75320000       0.42610000
    79  C          0.35044000       0.27923000       0.52092000
    80  C          0.64956000       0.72077000       0.47908000
    81  H          0.40840000       0.38320000       0.54940000
    82  H          0.59160000       0.61680000       0.45060000
