data_HIZBIE
_symmetry_space_group_name_H-M    'P1'
_symmetry_Int_Tables_number       1
loop_
_symmetry_equiv_pos_site_id
_symmetry_equiv_pos_as_xyz
1 x,y,z
_cell_length_a                   6.306401
_cell_length_b                   7.99932
_cell_length_c                   20.41065
_cell_angle_alpha                90.0
_cell_angle_beta                 96.7662
_cell_angle_gamma                90.0
loop_
_atom_site_label
_atom_site_type_symbol
_atom_site_fract_x
_atom_site_fract_y
_atom_site_fract_z
     1  I          0.36593500       0.88601400       0.13614915
     2  I          0.63406500       0.38601400       0.36385085
     3  I          0.63406500       0.11398600       0.86385085
     4  I          0.36593500       0.61398600       0.63614915
     5  C          0.94839000       0.88246000       0.04363000
     6  C          0.05161000       0.38246000       0.45637000
     7  C          0.05161000       0.11754000       0.95637000
     8  C          0.94839000       0.61754000       0.54363000
     9  C          0.14738000       0.95637000       0.05532000
    10  C          0.85262000       0.45637000       0.44468000
    11  C          0.85262000       0.04363000       0.94468000
    12  C          0.14738000       0.54363000       0.55532000
    13  C          0.80541000       0.92468000       0.98967000
    14  C          0.19459000       0.42468000       0.51033000
    15  C          0.19459000       0.07532000       0.01033000
    16  C          0.80541000       0.57532000       0.48967000
    17  F          0.61555000       0.84415000       0.98100820
    18  F          0.38445000       0.34415000       0.51899180
    19  F          0.38445000       0.15585000       0.01899180
    20  F          0.61555000       0.65585000       0.48100820
    21  F          0.88995000       0.76345000       0.08482160
    22  F          0.11005000       0.26345000       0.41517840
    23  F          0.11005000       0.23655000       0.91517840
    24  F          0.88995000       0.73655000       0.58482160
    25  C          0.17541000       0.38737000       0.14803000
    26  C          0.82459000       0.88737000       0.35197000
    27  C          0.82459000       0.61263000       0.85197000
    28  C          0.17541000       0.11263000       0.64803000
    29  H          0.18860000       0.44920000       0.10890000
    30  H          0.81140000       0.94920000       0.39110000
    31  H          0.81140000       0.55080000       0.89110000
    32  H          0.18860000       0.05080000       0.60890000
    33  C          0.33911100       0.38757000       0.19903000
    34  C          0.66088900       0.88757000       0.30097000
    35  C          0.66088900       0.61243000       0.80097000
    36  C          0.33911100       0.11243000       0.69903000
    37  H          0.46350000       0.45110000       0.19400000
    38  H          0.53650000       0.95110000       0.30600000
    39  H          0.53650000       0.54890000       0.80600000
    40  H          0.46350000       0.04890000       0.69400000
    41  C          0.15571000       0.21428000       0.26153000
    42  C          0.84429000       0.71428000       0.23847000
    43  C          0.84429000       0.78572000       0.73847000
    44  C          0.15571000       0.28572000       0.76153000
    45  H          0.14800000       0.15300000       0.30100000
    46  H          0.85200000       0.65300000       0.19900000
    47  H          0.85200000       0.84700000       0.69900000
    48  H          0.14800000       0.34700000       0.80100000
    49  C         -0.01869000       0.20738000       0.21243000
    50  C          0.01869000       0.70738000       0.28757000
    51  C          0.01869000       0.79262000       0.78757000
    52  C         -0.01869000       0.29262000       0.71243000
    53  H          0.85890000       0.14310000       0.21890000
    54  H          0.14110000       0.64310000       0.28110000
    55  H          0.14110000       0.85690000       0.78110000
    56  H          0.85890000       0.35690000       0.71890000
    57  N          0.33188000       0.30197000       0.25582000
    58  N          0.66812000       0.80197000       0.24418000
    59  N          0.66812000       0.69803000       0.74418000
    60  N          0.33188000       0.19803000       0.75582000
    61  C          0.77728800       0.38608000       0.04914000
    62  C          0.22271200       0.88608000       0.45086000
    63  C          0.22271200       0.61392000       0.95086000
    64  C          0.77728800       0.11392000       0.54914000
    65  H          0.88230000       0.46660000       0.04150000
    66  H          0.11770000       0.96660000       0.45850000
    67  H          0.11770000       0.53340000       0.95850000
    68  H          0.88230000       0.03340000       0.54150000
    69  H          0.65260000       0.37400000       0.01850000
    70  H          0.34740000       0.87400000       0.48150000
    71  H          0.34740000       0.62600000       0.98150000
    72  H          0.65260000       0.12600000       0.51850000
    73  C          0.80461000       0.29048000       0.10253000
    74  C          0.19539000       0.79048000       0.39747000
    75  C          0.19539000       0.70952000       0.89747000
    76  C          0.80461000       0.20952000       0.60253000
    77  H          0.69570000       0.21150000       0.10820000
    78  H          0.30430000       0.71150000       0.39180000
    79  H          0.30430000       0.78850000       0.89180000
    80  H          0.69570000       0.28850000       0.60820000
    81  C         -0.01038000       0.29597000       0.15383000
    82  C          0.01038000       0.79597000       0.34617000
    83  C          0.01038000       0.70403000       0.84617000
    84  C         -0.01038000       0.20403000       0.65383000
