data_HIZQOY
_symmetry_space_group_name_H-M    'P1'
_symmetry_Int_Tables_number       1
loop_
_symmetry_equiv_pos_site_id
_symmetry_equiv_pos_as_xyz
1 x,y,z
_cell_length_a                   6.25464
_cell_length_b                   7.87614
_cell_length_c                   11.57816
_cell_angle_alpha                78.7435
_cell_angle_beta                 75.3475
_cell_angle_gamma                83.4555
loop_
_atom_site_label
_atom_site_type_symbol
_atom_site_fract_x
_atom_site_fract_y
_atom_site_fract_z
     1  C          0.25154000       0.35733000       0.43782000
     2  C          0.74846000       0.64267000       0.56218000
     3  C          0.45014000       0.24813000       0.38732000
     4  C          0.54986000       0.75187000       0.61268000
     5  C          0.65994000       0.31133000       0.34532000
     6  C          0.34006000       0.68867000       0.65468000
     7  C          0.83814000       0.21273000       0.28972000
     8  C          0.16186000       0.78727000       0.71028000
     9  C          0.81614000       0.04793000       0.27012000
    10  C          0.18386000       0.95207000       0.72988000
    11  C          0.60954000       0.98297000       0.31442000
    12  C          0.39046000       0.01703000       0.68558000
    13  C          0.43084000       0.07933000       0.37362000
    14  C          0.56916000       0.92067000       0.62638000
    15  F          0.69583000       0.46944190       0.35832160
    16  F          0.30417000       0.53055810       0.64167840
    17  F          0.03533000       0.28222000       0.25025150
    18  F          0.96467000       0.71778000       0.74974850
    19  F          0.57653000       0.82478810       0.29983160
    20  F          0.42347000       0.17521190       0.70016840
    21  F          0.23632000       0.00832000       0.41355150
    22  F          0.76368000      -0.00832000       0.58644850
    23  I          0.07821200       0.91644681       0.16629714
    24  I          0.92178800       0.08355319       0.83370286
    25  O          0.25703000       0.52002000       0.38442180
    26  O          0.74297000       0.47998000       0.61557820
    27  H          0.12580000       0.57360000       0.41740000
    28  H          0.87420000       0.42640000       0.58260000
    29  O          0.10043000       0.29522000       0.51888180
    30  O          0.89957000       0.70478000       0.48111820
    31  C          0.63295000       0.60486000       0.05813000
    32  C          0.36705000       0.39514000       0.94187000
    33  H          0.74630000       0.67990000       0.05720000
    34  H          0.25370000       0.32010000       0.94280000
    35  H          0.55180000       0.57270000       0.14160000
    36  H          0.44820000       0.42730000       0.85840000
    37  C          0.25784000       0.55677000      -0.01032000
    38  C          0.74216000       0.44323000       0.01032000
    39  H          0.18900000       0.52540000       0.07530000
    40  H          0.81100000       0.47460000       0.92470000
    41  H          0.14140000       0.60380000       0.94840000
    42  H          0.85860000       0.39620000       0.05160000
    43  S          0.44568110       0.72291200       0.97055400
    44  S          0.55431890       0.27708800       0.02944600
