data_HIZREP
_symmetry_space_group_name_H-M    'P1'
_symmetry_Int_Tables_number       1
loop_
_symmetry_equiv_pos_site_id
_symmetry_equiv_pos_as_xyz
1 x,y,z
_cell_length_a                   5.8988616
_cell_length_b                   21.01125
_cell_length_c                   16.11434
_cell_angle_alpha                90.0
_cell_angle_beta                 95.5573
_cell_angle_gamma                90.0
loop_
_atom_site_label
_atom_site_type_symbol
_atom_site_fract_x
_atom_site_fract_y
_atom_site_fract_z
     1  C          0.29164000       0.46453120       0.08360170
     2  C          0.70836000       0.96453120       0.41639830
     3  C          0.70836000       0.53546880       0.91639830
     4  C          0.29164000       0.03546880       0.58360170
     5  H          0.37920000       0.48300000       0.04170000
     6  H          0.62080000       0.98300000       0.45830000
     7  H          0.62080000       0.51700000       0.95830000
     8  H          0.37920000       0.01700000       0.54170000
     9  H          0.13230000       0.47410000       0.06790000
    10  H          0.86770000       0.97410000       0.43210000
    11  H          0.86770000       0.52590000       0.93210000
    12  H          0.13230000       0.02590000       0.56790000
    13  C          0.36355000       0.49554120       0.16696180
    14  C          0.63645000      -0.00445880       0.33303820
    15  C          0.63645000       0.50445880       0.83303820
    16  C          0.36355000       0.00445880       0.66696180
    17  H          0.28750000       0.47420000       0.20990000
    18  H          0.71250000       0.97420000       0.29010000
    19  H          0.71250000       0.52580000       0.79010000
    20  H          0.28750000       0.02580000       0.70990000
    21  H          0.31430000       0.53960000       0.16510000
    22  H          0.68570000       0.03960000       0.33490000
    23  H          0.68570000       0.46040000       0.83490000
    24  H          0.31430000       0.96040000       0.66510000
    25  C          0.69684000       0.40750120       0.19965170
    26  C          0.30316000       0.90750120       0.30034830
    27  C          0.30316000       0.59249880       0.80034830
    28  C          0.69684000       0.09249880       0.69965170
    29  H          0.85400000       0.39700000       0.21780000
    30  H          0.14600000       0.89700000       0.28220000
    31  H          0.14600000       0.60300000       0.78220000
    32  H          0.85400000       0.10300000       0.71780000
    33  H          0.60280000       0.39090000       0.24080000
    34  H          0.39720000       0.89090000       0.25920000
    35  H          0.39720000       0.60910000       0.75920000
    36  H          0.60280000       0.10910000       0.74080000
    37  C          0.62944000       0.37557120       0.11653170
    38  C          0.37056000       0.87557120       0.38346830
    39  C          0.37056000       0.62442880       0.88346830
    40  C          0.62944000       0.12442880       0.61653170
    41  H          0.67490000       0.33120000       0.12040000
    42  H          0.32510000       0.83120000       0.37960000
    43  H          0.32510000       0.66880000       0.87960000
    44  H          0.67490000       0.16880000       0.62040000
    45  H          0.71250000       0.39540000       0.07440000
    46  H          0.28750000       0.89540000       0.42560000
    47  H          0.28750000       0.60460000       0.92560000
    48  H          0.71250000       0.10460000       0.57440000
    49  O          0.20973000       0.35723900       0.15678120
    50  O          0.79027000       0.85723900       0.34321880
    51  O          0.79027000       0.64276100       0.84321880
    52  O          0.20973000       0.14276100       0.65678120
    53  O          0.77153000       0.51204900       0.11605120
    54  O          0.22847000       0.01204900       0.38394880
    55  O          0.22847000       0.48795100       0.88394880
    56  O          0.77153000       0.98795100       0.61605120
    57  S          0.32907110       0.37951300       0.08331500
    58  S          0.67092890       0.87951300       0.41668500
    59  S          0.67092890       0.62048700       0.91668500
    60  S          0.32907110       0.12048700       0.58331500
    61  S          0.66643110       0.49285300       0.19467400
    62  S          0.33356890       0.99285300       0.30532600
    63  S          0.33356890       0.50714700       0.80532600
    64  S          0.66643110       0.00714700       0.69467400
    65  Br         0.27799500       0.99006188       0.07718218
    66  Br         0.72200500       0.49006188       0.42281782
    67  Br         0.72200500       0.00993812       0.92281782
    68  Br         0.27799500       0.50993812       0.57718218
    69  C          0.19144000       0.07193120       0.10677160
    70  C          0.80856000       0.57193120       0.39322840
    71  C          0.80856000       0.92806880       0.89322840
    72  C          0.19144000       0.42806880       0.60677160
    73  C         -0.00224000       0.08274120       0.14703170
    74  C          0.00224000       0.58274120       0.35296830
    75  C          0.00224000       0.91725880       0.85296830
    76  C         -0.00224000       0.41725880       0.64703170
    77  C          0.93436000       0.14287120       0.16867170
    78  C          0.06564000       0.64287120       0.33132830
    79  C          0.06564000       0.85712880       0.83132830
    80  C          0.93436000       0.35712880       0.66867170
    81  C          0.05884000       0.19620120       0.14940170
    82  C          0.94116000       0.69620120       0.35059830
    83  C          0.94116000       0.80379880       0.85059830
    84  C          0.05884000       0.30379880       0.64940170
    85  C          0.25234000       0.18483120       0.10935180
    86  C          0.74766000       0.68483120       0.39064820
    87  C          0.74766000       0.81516880       0.89064820
    88  C          0.25234000       0.31516880       0.60935180
    89  C          0.31884000       0.12463120       0.08942170
    90  C          0.68116000       0.62463120       0.41057830
    91  C          0.68116000       0.87536880       0.91057830
    92  C          0.31884000       0.37536880       0.58942170
    93  F          0.86777000       0.03317700       0.16664100
    94  F          0.13223000       0.53317700       0.33335900
    95  F          0.13223000       0.96682300       0.83335900
    96  F          0.86777000       0.46682300       0.66664100
    97  F          0.74748000       0.15044700       0.20924100
    98  F          0.25252000       0.65044700       0.29075900
    99  F          0.25252000       0.84955300       0.79075900
   100  F          0.74748000       0.34955300       0.70924100
   101  F          0.38093000       0.23504700       0.08929110
   102  F          0.61907000       0.73504700       0.41070890
   103  F          0.61907000       0.76495300       0.91070890
   104  F          0.38093000       0.26495300       0.58929110
   105  F          0.51132000       0.11756700       0.05183100
   106  F          0.48868000       0.61756700       0.44816900
   107  F          0.48868000       0.88243300       0.94816900
   108  F          0.51132000       0.38243300       0.55183100
   109  O         -0.01653000       0.25381900       0.16971130
   110  O          0.01653000       0.75381900       0.33028870
   111  O          0.01653000       0.74618100       0.83028870
   112  O         -0.01653000       0.24618100       0.66971130
   113  H          0.07750000       0.28001500       0.16111900
   114  H          0.92250000       0.78001500       0.33888100
   115  H          0.92250000       0.71998500       0.83888100
   116  H          0.07750000       0.21998500       0.66111900
   117  Br         0.77386500       0.88653512       0.13166918
   118  Br         0.22613500       0.38653512       0.36833082
   119  Br         0.22613500       0.11346488       0.86833082
   120  Br         0.77386500       0.61346488       0.63166918
   121  C          0.84974000       0.80040120       0.12273170
   122  C          0.15026000       0.30040120       0.37726830
   123  C          0.15026000       0.19959880       0.87726830
   124  C          0.84974000       0.69959880       0.62273170
   125  C          0.04024000       0.78263120       0.08494170
   126  C          0.95976000       0.28263120       0.41505830
   127  C          0.95976000       0.21736880       0.91505830
   128  C          0.04024000       0.71736880       0.58494170
   129  C          0.09584000       0.71984120       0.07614170
   130  C          0.90416000       0.21984120       0.42385830
   131  C          0.90416000       0.28015880       0.92385830
   132  C          0.09584000       0.78015880       0.57614170
   133  C          0.96194000       0.67117120       0.10390170
   134  C          0.03806000       0.17117120       0.39609830
   135  C          0.03806000       0.32882880       0.89609830
   136  C          0.96194000       0.82882880       0.60390170
   137  C          0.77154000       0.68965120       0.14198170
   138  C          0.22846000       0.18965120       0.35801830
   139  C          0.22846000       0.31034880       0.85801830
   140  C          0.77154000       0.81034880       0.64198170
   141  C          0.71614000       0.75262120       0.15106170
   142  C          0.28386000       0.25262120       0.34893830
   143  C          0.28386000       0.24737880       0.84893830
   144  C          0.71614000       0.74737880       0.65106170
   145  F          0.17653000       0.82716700       0.05636100
   146  F          0.82347000       0.32716700       0.44363900
   147  F          0.82347000       0.17283300       0.94363900
   148  F          0.17653000       0.67283300       0.55636100
   149  F          0.28403000       0.70420700       0.03929110
   150  F          0.71597000       0.20420700       0.46070890
   151  F          0.71597000       0.29579300       0.96070890
   152  F          0.28403000       0.79579300       0.53929110
   153  F          0.63693000       0.64401700       0.17030110
   154  F          0.36307000       0.14401700       0.32969890
   155  F          0.36307000       0.35598300       0.82969890
   156  F          0.63693000       0.85598300       0.67030110
   157  F          0.53012000       0.76705700       0.18916100
   158  F          0.46988000       0.26705700       0.31083900
   159  F          0.46988000       0.23294300       0.81083900
   160  F          0.53012000       0.73294300       0.68916100
   161  O          0.02523000       0.61023900       0.09327130
   162  O         -0.02523000       0.11023900       0.40672870
   163  O         -0.02523000       0.38976100       0.90672870
   164  O          0.02523000       0.88976100       0.59327130
   165  H          0.92960000       0.58941700       0.10920000
   166  H          0.07040000       0.08941700       0.39080000
   167  H          0.07040000       0.41058300       0.89080000
   168  H          0.92960000       0.91058300       0.60920000
