data_HOFSUQ
_symmetry_space_group_name_H-M    'P1'
_symmetry_Int_Tables_number       1
loop_
_symmetry_equiv_pos_site_id
_symmetry_equiv_pos_as_xyz
1 x,y,z
_cell_length_a                   8.78951
_cell_length_b                   9.29381
_cell_length_c                   9.51811
_cell_angle_alpha                89.8441
_cell_angle_beta                 72.5861
_cell_angle_gamma                73.1471
loop_
_atom_site_label
_atom_site_type_symbol
_atom_site_fract_x
_atom_site_fract_y
_atom_site_fract_z
     1  O          0.30552150       0.20690140       0.08169140
     2  O          0.69447850       0.79309860       0.91830860
     3  O          0.16295140       0.86986130       0.96139130
     4  O          0.83704860       0.13013870       0.03860870
     5  O          0.02750180       0.83672150       0.67935150
     6  O          0.97249820       0.16327850       0.32064850
     7  O          0.92926830       0.67188170       0.60693150
     8  O          0.07073170       0.32811830       0.39306850
     9  N          0.01043180       0.71018180       0.67610160
    10  N          0.98956820       0.28981820       0.32389840
    11  C          0.09922000       0.59435190       0.75405180
    12  C          0.90078000       0.40564810       0.24594820
    13  C          0.16652000       0.44942000       0.68358190
    14  C          0.83348000       0.55058000       0.31641810
    15  H          0.14710000       0.42640000       0.59560000
    16  H          0.85290000       0.57360000       0.40440000
    17  C          0.26282000       0.33962000       0.74596190
    18  C          0.73718000       0.66038000       0.25403810
    19  H          0.31210000       0.24130000       0.69840000
    20  H          0.68790000       0.75870000       0.30160000
    21  C          0.28802000       0.37239180       0.87791180
    22  C          0.71198000       0.62760820       0.12208820
    23  C          0.39172000       0.25082000       0.94087190
    24  C          0.60828000       0.74918000       0.05912810
    25  H          0.47910000       0.16890000       0.86980000
    26  H          0.52090000       0.83110000       0.13020000
    27  C          0.42692000       0.28712000       0.07512000
    28  C          0.57308000       0.71288000       0.92488000
    29  H          0.53560000       0.22760000       0.08570000
    30  H          0.46440000       0.77240000       0.91430000
    31  C          0.35492000       0.44362000       0.14616180
    32  C          0.64508000       0.55638000       0.85383820
    33  C          0.39042000       0.48042000       0.27252000
    34  C          0.60958000       0.51958000       0.72748000
    35  H          0.46460000       0.40690000       0.30850000
    36  H          0.53540000       0.59310000       0.69150000
    37  C          0.31722000       0.62422000       0.34532000
    38  C          0.68278000       0.37578000       0.65468000
    39  H          0.34010000       0.64750000       0.43130000
    40  H          0.65990000       0.35250000       0.56870000
    41  C          0.21072000       0.73312000       0.29113190
    42  C          0.78928000       0.26688000       0.70886810
    43  H          0.15930000       0.82990000       0.34190000
    44  H          0.84070000       0.17010000       0.65810000
    45  C          0.17862000       0.70090190       0.16201180
    46  C          0.82138000       0.29909810       0.83798820
    47  C          0.07472000       0.82162190       0.09993190
    48  C          0.92528000       0.17837810       0.90006810
    49  H          0.98520000       0.90170000       0.17160000
    50  H          0.01480000       0.09830000       0.82840000
    51  C          0.04422000       0.78918180       0.96215180
    52  C          0.95578000       0.21081820       0.03784820
    53  H          0.93610000       0.84850000       0.95020000
    54  H          0.06390000       0.15150000       0.04980000
    55  C          0.12061190       0.63357180       0.88689170
    56  C          0.87938810       0.36642820       0.11310830
    57  C          0.21699190       0.51976180       0.95058170
    58  C          0.78300810       0.48023820       0.04941830
    59  C          0.24933190       0.55474180       0.08833170
    60  C          0.75066810       0.44525820       0.91166830
    61  C          0.34052000       0.00052000       0.50702000
    62  C          0.65948000      -0.00052000       0.49298000
    63  H          0.23200000       0.00080000       0.51180000
    64  H          0.76800000      -0.00080000       0.48820000
    65  C          0.42852000       0.06922000       0.39662000
    66  C          0.57148000       0.93078000       0.60338000
    67  H          0.38000000       0.11620000       0.32620000
    68  H          0.62000000       0.88380000       0.67380000
    69  C          0.41202000       0.93102000       0.61052000
    70  C          0.58798000       0.06898000       0.38948000
    71  H          0.35220000       0.88410000       0.68550000
    72  H          0.64780000       0.11590000       0.31450000
