data_HOGLEX
_symmetry_space_group_name_H-M    'P1'
_symmetry_Int_Tables_number       1
loop_
_symmetry_equiv_pos_site_id
_symmetry_equiv_pos_as_xyz
1 x,y,z
_cell_length_a                   14.158814
_cell_length_b                   3.97494
_cell_length_c                   21.8372
_cell_angle_alpha                90.0
_cell_angle_beta                 90.4795
_cell_angle_gamma                90.0
loop_
_atom_site_label
_atom_site_type_symbol
_atom_site_fract_x
_atom_site_fract_y
_atom_site_fract_z
     1  Cl         0.65006400       0.04383130       0.26788200
     2  Cl         0.34993600       0.54383130       0.23211800
     3  Cl         0.34993600       0.95616870       0.73211800
     4  Cl         0.65006400       0.45616870       0.76788200
     5  Cl         0.77778400       0.38931130       0.06897200
     6  Cl         0.22221600       0.88931130       0.43102800
     7  Cl         0.22221600       0.61068870       0.93102800
     8  Cl         0.77778400       0.11068870       0.56897200
     9  Cl         0.42305400       0.87438160       0.07313300
    10  Cl         0.57694600       0.37438160       0.42686700
    11  Cl         0.57694600       0.12561840       0.92686700
    12  Cl         0.42305400       0.62561840       0.57313300
    13  O          0.79078900       0.65534000       0.19195600
    14  O          0.20921100       0.15534000       0.30804400
    15  O          0.20921100       0.34466000       0.80804400
    16  O          0.79078900       0.84466000       0.69195600
    17  H          0.78726500       0.67474000       0.22924200
    18  H          0.21273500       0.17474000       0.27075800
    19  H          0.21273500       0.32526000       0.77075800
    20  H          0.78726500       0.82526000       0.72924200
    21  C          0.70612120       0.71124000       0.16668800
    22  C          0.29387880       0.21124000       0.33331200
    23  C          0.29387880       0.28876000       0.83331200
    24  C          0.70612120       0.78876000       0.66668800
    25  C          0.60295140       0.64644000       0.07800800
    26  C          0.39704860       0.14644000       0.42199200
    27  C          0.39704860       0.35356000       0.92199200
    28  C          0.60295140       0.85356000       0.57800800
    29  H          0.59319800       0.56835600       0.03830400
    30  H          0.40680200       0.06835600       0.46169600
    31  H          0.40680200       0.43164400       0.96169600
    32  H          0.59319800       0.93164400       0.53830400
    33  C          0.68816130       0.59774000       0.10731800
    34  C          0.31183870       0.09774000       0.39268200
    35  C          0.31183870       0.40226000       0.89268200
    36  C          0.68816130       0.90226000       0.60731800
    37  C          0.53242130       0.81285000       0.10855900
    38  C          0.46757870       0.31285000       0.39144100
    39  C          0.46757870       0.18715000       0.89144100
    40  C          0.53242130       0.68715000       0.60855900
    41  C          0.63241130       0.88284000       0.19487800
    42  C          0.36758870       0.38284000       0.30512200
    43  C          0.36758870       0.11716000       0.80512200
    44  C          0.63241130       0.61716000       0.69487800
    45  C          0.54620130       0.93444000       0.16682900
    46  C          0.45379870       0.43444000       0.33317100
    47  C          0.45379870       0.06556000       0.83317100
    48  C          0.54620130       0.56556000       0.66682900
    49  H          0.49832000       0.04923400       0.18689000
    50  H          0.50168000       0.54923400       0.31311000
    51  H          0.50168000       0.95076600       0.81311000
    52  H          0.49832000       0.45076600       0.68689000
    53  N          0.84348110       0.62414000       0.31063700
    54  N          0.15651890       0.12414000       0.18936300
    55  N          0.15651890       0.37586000       0.68936300
    56  N          0.84348110       0.87586000       0.81063700
    57  C          0.95133130       0.51234000       0.41725800
    58  C          0.04866870       0.01234000       0.08274200
    59  C          0.04866870       0.48766000       0.58274200
    60  C          0.95133130      -0.01234000       0.91725800
    61  C          0.00933130       0.45155000       0.47176800
    62  C         -0.00933130       0.95155000       0.02823200
    63  C         -0.00933130       0.54845000       0.52823200
    64  C          0.00933130       0.04845000       0.97176800
    65  H          0.06510900       0.33230200       0.46612800
    66  H          0.93489100       0.83230200       0.03387200
    67  H          0.93489100       0.66769800       0.53387200
    68  H          0.06510900       0.16769800       0.96612800
    69  C          0.98417140       0.42595000       0.35963900
    70  C          0.01582860       0.92595000       0.14036100
    71  C          0.01582860       0.57405000       0.64036100
    72  C          0.98417140       0.07405000       0.85963900
    73  H          0.04352900       0.32888200       0.35541800
    74  H          0.95647100       0.82888200       0.14458200
    75  H          0.95647100       0.67111800       0.64458200
    76  H          0.04352900       0.17111800       0.85541800
    77  C          0.86192130       0.65295000       0.41942900
    78  C          0.13807870       0.15295000       0.08057100
    79  C          0.13807870       0.34705000       0.58057100
    80  C          0.86192130       0.84705000       0.91942900
    81  H          0.83586600       0.71153200       0.45689400
    82  H          0.16413400       0.21153200       0.04310600
    83  H          0.16413400       0.28846800       0.54310600
    84  H          0.83586600       0.78846800       0.95689400
    85  C          0.81196140       0.70556000       0.36634900
    86  C          0.18803860       0.20556000       0.13365100
    87  C          0.18803860       0.29444000       0.63365100
    88  C          0.81196140       0.79444000       0.86634900
    89  H          0.75254400       0.80379800       0.36914600
    90  H          0.24745600       0.30379800       0.13085400
    91  H          0.24745600       0.19620200       0.63085400
    92  H          0.75254400       0.69620200       0.86914600
    93  C          0.92863150       0.48445000       0.30885900
    94  C          0.07136850      -0.01555000       0.19114100
    95  C          0.07136850       0.51555000       0.69114100
    96  C          0.92863150       0.01555000       0.80885900
    97  H          0.95211400       0.42218800       0.27084600
    98  H          0.04788600       0.92218800       0.22915400
    99  H          0.04788600       0.57781200       0.72915400
   100  H          0.95211400       0.07781200       0.77084600
