data_HOGLIB
_symmetry_space_group_name_H-M    'P1'
_symmetry_Int_Tables_number       1
loop_
_symmetry_equiv_pos_site_id
_symmetry_equiv_pos_as_xyz
1 x,y,z
_cell_length_a                   4.03714
_cell_length_b                   26.0403
_cell_length_c                   12.363212
_cell_angle_alpha                90.0
_cell_angle_beta                 93.3585
_cell_angle_gamma                90.0
loop_
_atom_site_label
_atom_site_type_symbol
_atom_site_fract_x
_atom_site_fract_y
_atom_site_fract_z
     1  Br         0.84604170       0.13337200       0.36153500
     2  Br         0.65395830       0.63337200       0.13846500
     3  Br         0.15395830       0.86662800       0.63846500
     4  Br         0.34604170       0.36662800       0.86153500
     5  Br         0.36227180       0.23390200       0.72981500
     6  Br         0.13772820       0.73390200       0.77018500
     7  Br         0.63772820       0.76609800       0.27018500
     8  Br         0.86227180       0.26609800       0.22981500
     9  Br         0.30596190       0.01896300       0.69637600
    10  Br         0.19403810       0.51896300       0.80362400
    11  Br         0.69403810       0.98103700       0.30362400
    12  Br         0.80596190       0.48103700       0.19637600
    13  O          0.68031200       0.22088150       0.50033000
    14  O          0.81968800       0.72088150      -0.00033000
    15  O          0.31968800       0.77911850       0.49967000
    16  O          0.18031200       0.27911850       0.00033000
    17  H          0.61696100       0.24578300       0.53398800
    18  H          0.88303900       0.74578300       0.96601200
    19  H          0.38303900       0.75421700       0.46601200
    20  H          0.11696100       0.25421700       0.03398800
    21  C          0.59471400       0.17772000       0.55035000
    22  C          0.90528600       0.67772000       0.94965000
    23  C          0.40528600       0.82228000       0.44965000
    24  C          0.09471400       0.32228000       0.05035000
    25  C          0.36981400       0.12752000       0.69364000
    26  C          0.13018600       0.62752000       0.80636000
    27  C          0.63018600       0.87248000       0.30636000
    28  C          0.86981400       0.37248000       0.19364000
    29  H          0.27503900       0.12609600       0.76032900
    30  H          0.22496100       0.62609600       0.73967100
    31  H          0.72496100       0.87390400       0.23967100
    32  H          0.77503900       0.37390400       0.26032900
    33  C          0.65681400       0.13162000       0.49784000
    34  C          0.84318600       0.63162000       0.00216000
    35  C          0.34318600       0.86838000       0.50216000
    36  C          0.15681400       0.36838000      -0.00216000
    37  C          0.57831500       0.08442000       0.54065000
    38  C          0.92168500       0.58442000       0.95935000
    39  C          0.42168500       0.91558000       0.45935000
    40  C          0.07831500       0.41558000       0.04065000
    41  H          0.62388100       0.05413500       0.50433800
    42  H          0.87611900       0.55413500      -0.00433800
    43  H          0.37611900       0.94586500       0.49566200
    44  H          0.12388100       0.44586500       0.00433800
    45  C          0.42991500       0.08322000       0.63915000
    46  C          0.07008500       0.58322000       0.86085000
    47  C          0.57008500       0.91678000       0.36085000
    48  C          0.92991500       0.41678000       0.13915000
    49  C          0.44891500       0.17412000       0.65035000
    50  C          0.05108500       0.67412000       0.84965000
    51  C          0.55108500       0.82588000       0.34965000
    52  C          0.94891500       0.32588000       0.15035000
    53  N          0.58001400       0.32061180       0.53834000
    54  N          0.91998600       0.82061180       0.96166000
    55  N          0.41998600       0.67938820       0.46166000
    56  N          0.08001400       0.17938820       0.03834000
    57  C          0.56661500       0.42832000       0.53325000
    58  C          0.93338500       0.92832000       0.96675000
    59  C          0.43338500       0.57168000       0.46675000
    60  C          0.06661500       0.07168000       0.03325000
    61  C          0.57171500       0.48522000       0.53525000
    62  C          0.92828500       0.98522000       0.96475000
    63  C          0.42828500       0.51478000       0.46475000
    64  C          0.07171500       0.01478000       0.03525000
    65  H          0.69036500       0.50082400       0.59301900
    66  H          0.80963500       0.00082400       0.90698100
    67  H          0.30963500       0.49917600       0.40698100
    68  H          0.19036500      -0.00082400       0.09301900
    69  C          0.72751600       0.40172000       0.61755000
    70  C          0.77248400       0.90172000       0.88245000
    71  C          0.27248400       0.59828000       0.38245000
    72  C          0.22751600       0.09828000       0.11755000
    73  H          0.83532700       0.41948400       0.67457200
    74  H          0.66467300       0.91948400       0.82542800
    75  H          0.16467300       0.58051600       0.32542800
    76  H          0.33532700       0.08051600       0.17457200
    77  C          0.41311600       0.39932000       0.45155000
    78  C          0.08688400       0.89932000       0.04845000
    79  C          0.58688400       0.60068000       0.54845000
    80  C          0.91311600       0.10068000       0.95155000
    81  H          0.30197500       0.41549100       0.39286900
    82  H          0.19802500       0.91549100       0.10713100
    83  H          0.69802500       0.58450900       0.60713100
    84  H          0.80197500       0.08450900       0.89286900
    85  C          0.72771500       0.34862000       0.61675000
    86  C          0.77228500       0.84862000       0.88325000
    87  C          0.27228500       0.65138000       0.38325000
    88  C          0.22771500       0.15138000       0.11675000
    89  H          0.83754100       0.33158800       0.67441300
    90  H          0.66245900       0.83158800       0.82558700
    91  H          0.16245900       0.66841200       0.32558700
    92  H          0.33754100       0.16841200       0.17441300
    93  C          0.42401600       0.34672000       0.45645000
    94  C          0.07598400       0.84672000       0.04355000
    95  C          0.57598400       0.65328000       0.54355000
    96  C          0.92401600       0.15328000       0.95645000
    97  H          0.31804500       0.32808600       0.40016900
    98  H          0.18195500       0.82808600       0.09983100
    99  H          0.68195500       0.67191400       0.59983100
   100  H          0.81804500       0.17191400       0.90016900
