data_HOJLIC
_symmetry_space_group_name_H-M    'P1'
_symmetry_Int_Tables_number       1
loop_
_symmetry_equiv_pos_site_id
_symmetry_equiv_pos_as_xyz
1 x,y,z
_cell_length_a                   5.1123
_cell_length_b                   7.9444
_cell_length_c                   9.2475
_cell_angle_alpha                85.6231
_cell_angle_beta                 74.9241
_cell_angle_gamma                75.3529
loop_
_atom_site_label
_atom_site_type_symbol
_atom_site_fract_x
_atom_site_fract_y
_atom_site_fract_z
     1  H          0.40560000       0.63640000       0.18730000
     2  H          0.59440000       0.36360000       0.81270000
     3  C          0.82834000       0.83193000       0.15132000
     4  C          0.17166000       0.16807000       0.84868000
     5  N          0.69765000       0.71773000       0.23073000
     6  N          0.30235000       0.28227000       0.76927000
     7  C          0.59826000       0.61893000       0.14293000
     8  C          0.40174000       0.38107000       0.85707000
     9  N          0.82926000       0.81743000       0.00913000
    10  N          0.17074000       0.18257000      -0.00913000
    11  C          0.66986000       0.70183000      -0.01193000
    12  C          0.33014000       0.29817000       0.01193000
    13  O          0.92594000       0.93522000       0.20217170
    14  O          0.07406000       0.06478000       0.79782830
    15  H          0.69760000       0.49340000       0.14830000
    16  H          0.30240000       0.50660000       0.85170000
    17  H          0.49970000       0.76440000       0.96060000
    18  H          0.50030000       0.23560000       0.03940000
    19  H          0.78960000       0.61840000       0.91570000
    20  H          0.21040000       0.38160000       0.08430000
    21  H          0.69460000       0.70930000       0.32230000
    22  H          0.30540000       0.29070000       0.67770000
    23  H          0.87960000       0.88440000       0.94460000
    24  H          0.12040000       0.11560000       0.05540000
    25  C          0.15824000       0.24222000       0.41922000
    26  C          0.84176000       0.75778000       0.58078000
    27  N          0.24855000       0.07983000       0.36662000
    28  N          0.75145000       0.92017000       0.63338000
    29  N          0.88776000       0.31733000       0.43923000
    30  N          0.11224000       0.68267000       0.56077000
    31  O          0.32053000       0.31865180       0.44926170
    32  O          0.67947000       0.68134820       0.55073830
    33  H          0.77250000       0.26830000       0.41930000
    34  H          0.22750000       0.73170000       0.58070000
    35  H          0.83750000       0.42740000       0.47830000
    36  H          0.16250000       0.57260000       0.52170000
    37  H          0.44170000       0.04240000       0.35030000
    38  H          0.55830000       0.95760000       0.64970000
    39  H          0.12850000       0.02730000       0.33830000
    40  H          0.87150000       0.97270000       0.66170000
