data_HOKZEO
_symmetry_space_group_name_H-M    'P1'
_symmetry_Int_Tables_number       1
loop_
_symmetry_equiv_pos_site_id
_symmetry_equiv_pos_as_xyz
1 x,y,z
_cell_length_a                   10.3181314
_cell_length_b                   13.8728012
_cell_length_c                   10.3431416
_cell_angle_alpha                90.0
_cell_angle_beta                 119.209219
_cell_angle_gamma                90.0
loop_
_atom_site_label
_atom_site_type_symbol
_atom_site_fract_x
_atom_site_fract_y
_atom_site_fract_z
     1  Br         0.13759300       0.27731200       0.80277800
     2  Br         0.86240700       0.77731200       0.19722200
     3  Cl         0.42623500       0.23242400       0.68371600
     4  Cl         0.57376500       0.73242400       0.31628400
     5  O          0.55022000       0.10341120       0.50965190
     6  O          0.44978000       0.60341120       0.49034810
     7  O          0.75047160       0.26071140       0.49738170
     8  O          0.24952840       0.76071140       0.50261830
     9  H          0.76040000       0.22030000       0.45940000
    10  H          0.23960000       0.72030000       0.54060000
    11  O          0.78923000       0.47835180       0.62463000
    12  O          0.21077000       0.97835180       0.37537000
    13  C          0.60112000       0.26927180       0.46892000
    14  C          0.39888000       0.76927180       0.53108000
    15  C          0.57912000       0.18499160       0.55392000
    16  C          0.42088000       0.68499160       0.44608000
    17  C          0.61182000       0.21984140       0.70862000
    18  C          0.38818000       0.71984140       0.29138000
    19  C          0.67822000       0.32179140       0.72042000
    20  C          0.32178000       0.82179140       0.27958000
    21  H          0.78520000       0.31210000       0.75020000
    22  H          0.21480000       0.81210000       0.24980000
    23  C          0.60212000       0.35800150       0.55932000
    24  C          0.39788000       0.85800150       0.44068000
    25  H          0.49730000       0.37620000       0.52890000
    26  H          0.50270000       0.87620000       0.47110000
    27  C          0.67843000       0.44298170       0.53193000
    28  C          0.32157000       0.94298170       0.46807000
    29  H          0.63460000       0.46920000       0.43480000
    30  H          0.36540000       0.96920000       0.56520000
    31  C          0.48852000       0.27174190       0.30602000
    32  C          0.51148000       0.77174190       0.69398000
    33  C          0.53042000       0.29362160       0.20092000
    34  C          0.46958000       0.79362160       0.79908000
    35  H          0.63170000       0.30730000       0.23200000
    36  H          0.36830000       0.80730000       0.76800000
    37  C          0.42723000       0.29586160       0.05072000
    38  C          0.57277000       0.79586160       0.94928000
    39  H          0.45710000       0.31040000       0.97930000
    40  H          0.54290000       0.81040000       0.02070000
    41  C          0.28072000       0.27662000       0.00782000
    42  C          0.71928000       0.77662000      -0.00782000
    43  C          0.23503000       0.25542000       0.10943000
    44  C          0.76497000       0.75542000       0.89057000
    45  H          0.13330000       0.24300000       0.07760000
    46  H          0.86670000       0.74300000       0.92240000
    47  C          0.33892000       0.25242000       0.25773000
    48  C          0.66108000       0.75242000       0.74227000
    49  H          0.30820000       0.23700000       0.32830000
    50  H          0.69180000       0.73700000       0.67170000
    51  C          0.67553000       0.38652150       0.83693000
    52  C          0.32447000       0.88652150       0.16307000
    53  C          0.58383000       0.46653170       0.80183000
    54  C          0.41617000       0.96653170       0.19817000
    55  H          0.51840000       0.48150000       0.70080000
    56  H          0.48160000       0.98150000       0.29920000
    57  C          0.58574000       0.52505180       0.91163000
    58  C          0.41426000       0.02505180       0.08837000
    59  H          0.52170000       0.57940000       0.88520000
    60  H          0.47830000       0.07940000       0.11480000
    61  C          0.67993000       0.50463190       0.05863000
    62  C          0.32007000       0.00463190       0.94137000
    63  H          0.68200000       0.54500000       0.13380000
    64  H          0.31800000       0.04500000       0.86620000
    65  C          0.77103000       0.42522000       0.09553000
    66  C          0.22897000       0.92522000       0.90447000
    67  H          0.83540000       0.41020000       0.19670000
    68  H          0.16460000       0.91020000       0.80330000
    69  C          0.76952000       0.36679170      -0.01428000
    70  C          0.23048000       0.86679170       0.01428000
    71  H          0.83370000       0.31250000       0.01280000
    72  H          0.16630000       0.81250000      -0.01280000
    73  C          0.70512000       0.14924140       0.82862000
    74  C          0.29488000       0.64924140       0.17138000
    75  C          0.66033000       0.10432000       0.91973000
    76  C          0.33967000       0.60432000       0.08027000
    77  H          0.56520000       0.11780000       0.90890000
    78  H          0.43480000       0.61780000       0.09110000
    79  C          0.75464000       0.03913000       0.02744000
    80  C          0.24536000       0.53913000       0.97256000
    81  H          0.72280000       0.00820000       0.08900000
    82  H          0.27720000       0.50820000       0.91100000
    83  C          0.89274000       0.01922000       0.04544000
    84  C          0.10726000       0.51922000       0.95456000
    85  H          0.95640000       0.97510000       0.11960000
    86  H          0.04360000       0.47510000       0.88040000
    87  C          0.93833000       0.06344190       0.95563000
    88  C          0.06167000       0.56344190       0.04437000
    89  H          0.03350000       0.04950000       0.96710000
    90  H          0.96650000       0.54950000       0.03290000
    91  C          0.84583000       0.12838180       0.84853000
    92  C          0.15417000       0.62838180       0.15147000
    93  H          0.87870000       0.15910000       0.78760000
    94  H          0.12130000       0.65910000       0.21240000
    95  O          0.12843000       0.60279190       0.56243000
    96  O          0.87157000       0.10279190       0.43757000
    97  C          0.07991100       0.52114000       0.46648000
    98  C          0.92008900       0.02114000       0.53352000
    99  H         -0.00380000       0.49150000       0.47330000
   100  H          0.00380000      -0.00850000       0.52670000
   101  H          0.03970000       0.54500000       0.36370000
   102  H          0.96030000       0.04500000       0.63630000
   103  C          0.17067000       0.45635000       0.48571100
   104  C          0.82933000       0.95635000       0.51428900
   105  H          0.11790000       0.39500000       0.44900000
   106  H          0.88210000       0.89500000       0.55100000
   107  H          0.24170000       0.45050000       0.59170000
   108  H          0.75830000       0.95050000       0.40830000
   109  H          0.22380000       0.47210000       0.43180000
   110  H          0.77620000       0.97210000       0.56820000
   111  C          0.00045000       0.63645000       0.57185000
   112  C         -0.00045000       0.13645000       0.42815000
   113  H          0.91760000       0.64940000       0.47100000
   114  H          0.08240000       0.14940000       0.52900000
   115  H          0.96780000       0.58570000       0.61710000
   116  H          0.03220000       0.08570000       0.38290000
   117  C          0.03537000       0.72194000       0.65868000
   118  C          0.96463000       0.22194000       0.34132000
   119  H          0.04870000       0.77540000       0.60430000
   120  H          0.95130000       0.27540000       0.39570000
   121  H          0.12710000       0.71210000       0.75230000
   122  H          0.87290000       0.21210000       0.24770000
   123  H          0.95410000       0.73700000       0.67870000
   124  H          0.04590000       0.23700000       0.32130000
