data_HOLGEX
_symmetry_space_group_name_H-M    'P1'
_symmetry_Int_Tables_number       1
loop_
_symmetry_equiv_pos_site_id
_symmetry_equiv_pos_as_xyz
1 x,y,z
_cell_length_a                   7.4374
_cell_length_b                   17.7771
_cell_length_c                   17.8669
_cell_angle_alpha                115.7108
_cell_angle_beta                 90.0729
_cell_angle_gamma                93.7449
loop_
_atom_site_label
_atom_site_type_symbol
_atom_site_fract_x
_atom_site_fract_y
_atom_site_fract_z
     1  O          0.04285000       0.83237000       0.28583000
     2  O          0.95715000       0.16763000       0.71417000
     3  H          0.93580000       0.80690000       0.27170000
     4  H          0.06420000       0.19310000       0.72830000
     5  H          0.12370000       0.79660000       0.26370000
     6  H          0.87630000       0.20340000       0.73630000
     7  O          0.05995000       0.82777000       0.78607000
     8  O          0.94005000       0.17223000       0.21393000
     9  H          0.13440000       0.78990000       0.75970000
    10  H          0.86560000       0.21010000       0.24030000
    11  H          0.94980000       0.80550000       0.77470000
    12  H          0.05020000       0.19450000       0.22530000
    13  N          0.35026000       0.07573000       0.00303000
    14  N          0.64974000       0.92427000      -0.00303000
    15  H          0.32520000       0.07350000       0.05020000
    16  H          0.67480000       0.92650000       0.94980000
    17  N          0.21466000       0.94067000       0.93417000
    18  N          0.78534000       0.05933000       0.06583000
    19  H          0.18960000       0.89770000       0.88580000
    20  H          0.81040000       0.10230000       0.11420000
    21  N          0.19686000      -0.00733000       0.07733000
    22  N          0.80314000       0.00733000       0.92267000
    23  C          0.43647000       0.14634000       0.00464000
    24  C          0.56353000       0.85366000      -0.00464000
    25  H          0.46880000       0.19260000       0.05620000
    26  H          0.53120000       0.80740000       0.94380000
    27  C          0.47588000       0.15044000       0.93256000
    28  C          0.52412000       0.84956000       0.06744000
    29  H          0.53390000       0.19990000       0.93340000
    30  H          0.46610000       0.80010000       0.06660000
    31  C          0.43078000       0.08144000       0.85706000
    32  C          0.56922000       0.91856000       0.14294000
    33  H          0.46130000       0.08330000       0.80640000
    34  H          0.53870000       0.91670000       0.19360000
    35  C          0.34248000       0.01114000       0.85606000
    36  C          0.65752000      -0.01114000       0.14394000
    37  H          0.30940000       0.96450000       0.80480000
    38  H          0.69060000       0.03550000       0.19520000
    39  C          0.30187000       0.00844000       0.93006000
    40  C          0.69813000      -0.00844000       0.06994000
    41  C          0.15867000       0.92856000       0.00284000
    42  C          0.84133000       0.07144000      -0.00284000
    43  C          0.07078000       0.85346000      -0.00744000
    44  C          0.92922000       0.14654000       0.00744000
    45  H          0.04370000       0.80980000       0.93860000
    46  H          0.95630000       0.19020000       0.06140000
    47  C          0.02378000       0.84376000       0.06214000
    48  C          0.97622000       0.15624000       0.93786000
    49  H          0.96600000       0.79240000       0.05690000
    50  H          0.03400000       0.20760000       0.94310000
    51  C          0.06068000       0.90926000       0.14024000
    52  C          0.93932000       0.09074000       0.85976000
    53  H          0.02720000       0.90420000       0.18920000
    54  H          0.97280000       0.09580000       0.81080000
    55  C          0.14768000       0.98186000       0.14414000
    56  C          0.85232000       0.01814000       0.85586000
    57  H          0.17420000       0.02680000       0.19730000
    58  H          0.82580000       0.97320000       0.80270000
    59  N          0.34896000       0.07503000       0.50363000
    60  N          0.65104000       0.92497000       0.49637000
    61  H          0.32980000       0.07160000       0.55070000
    62  H          0.67020000       0.92840000       0.44930000
    63  N          0.20666000       0.94277000       0.43483000
    64  N          0.79334000       0.05723000       0.56517000
    65  H          0.17510000       0.90160000       0.38600000
    66  H          0.82490000       0.09840000       0.61400000
    67  N          0.20746000      -0.01033000       0.57763000
    68  N          0.79254000       0.01033000       0.42237000
    69  C          0.43508000       0.14584000       0.50504000
    70  C          0.56492000       0.85416000       0.49496000
    71  H          0.47410000       0.19070000       0.55660000
    72  H          0.52590000       0.80930000       0.44340000
    73  C          0.46478000       0.15254000       0.43414000
    74  C          0.53522000       0.84746000       0.56586000
    75  H          0.52220000       0.20230000       0.43540000
    76  H          0.47780000       0.79770000       0.56460000
    77  C          0.41047000       0.08564000       0.35854000
    78  C          0.58953000       0.91436000       0.64146000
    79  H          0.43380000       0.08910000       0.30780000
    80  H          0.56620000       0.91090000       0.69220000
    81  C          0.32437000       0.01594000       0.35774000
    82  C          0.67563000       0.98406000       0.64226000
    83  H          0.28500000       0.97060000       0.30640000
    84  H          0.71500000       0.02940000       0.69360000
    85  C          0.29327000       0.01064000       0.43174000
    86  C          0.70673000      -0.01064000       0.56826000
    87  C          0.15907000       0.92766000       0.50304000
    88  C          0.84093000       0.07234000       0.49696000
    89  C          0.06917000       0.85236000       0.49154000
    90  C          0.93083000       0.14764000       0.50846000
    91  H          0.03520000       0.81030000       0.43750000
    92  H          0.96480000       0.18970000       0.56250000
    93  C          0.03108000       0.84136000       0.56144000
    94  C          0.96892000       0.15864000       0.43856000
    95  H          0.97100000       0.79040000       0.55620000
    96  H          0.02900000       0.20960000       0.44380000
    97  C          0.07958000       0.90416000       0.63974000
    98  C          0.92042000       0.09584000       0.36026000
    99  H          0.05370000       0.89710000       0.68840000
   100  H          0.94630000       0.10290000       0.31160000
   101  C          0.16538000       0.97656000       0.64474000
   102  C          0.83462000       0.02344000       0.35526000
   103  H          0.19710000       0.02000000       0.69830000
   104  H          0.80290000       0.98000000       0.30170000
   105  N          0.15406000       0.45177000       0.60717000
   106  N          0.84594000       0.54823000       0.39283000
   107  H          0.26650000       0.47300000       0.61540000
   108  H          0.73350000       0.52700000       0.38460000
   109  N          0.15246000       0.49767000       0.74967000
   110  N          0.84754000       0.50233000       0.25033000
   111  H          0.27050000       0.49680000       0.74980000
   112  H          0.72950000       0.50320000       0.25020000
   113  N          0.16656000       0.54497000       0.89267000
   114  N          0.83344000       0.45503000       0.10733000
   115  H          0.27230000       0.52380000       0.88540000
   116  H          0.72770000       0.47620000       0.11460000
   117  C          0.08449000       0.41556000       0.52896000
   118  C          0.91551000       0.58444000       0.47104000
   119  H          0.15680000       0.41110000       0.48370000
   120  H          0.84320000       0.58890000       0.51630000
   121  C          0.90871000       0.38546000       0.51586000
   122  C          0.09129000       0.61454000       0.48414000
   123  H          0.85370000       0.36270000       0.46190000
   124  H          0.14630000       0.63730000       0.53810000
   125  C          0.81252000       0.38886000       0.58286000
   126  C          0.18748000       0.61114000       0.41714000
   127  H          0.69090000       0.36630000       0.57440000
   128  H          0.30910000       0.63370000       0.42560000
   129  C          0.88813000       0.42387000       0.66146000
   130  C          0.11187000       0.57613000       0.33854000
   131  H          0.82070000       0.42460000       0.70690000
   132  H          0.17930000       0.57540000       0.29310000
   133  C          0.05998000       0.45737000       0.67377000
   134  C          0.94002000       0.54263000       0.32623000
   135  C          0.07328000       0.53916000       0.82556000
   136  C          0.92672000       0.46084000       0.17444000
   137  C          0.91082000       0.57296000       0.83786000
   138  C          0.08918000       0.42704000       0.16214000
   139  H          0.84370000       0.57190000       0.79210000
   140  H          0.15630000       0.42810000       0.20790000
   141  C          0.84442000       0.60826000       0.91556000
   142  C          0.15558000       0.39174000       0.08444000
   143  H          0.72950000       0.63050000       0.92340000
   144  H          0.27050000       0.36950000       0.07660000
   145  C          0.94211000       0.61226000       0.98306000
   146  C          0.05789000       0.38774000       0.01694000
   147  H          0.89480000       0.63610000       0.03720000
   148  H          0.10520000       0.36390000       0.96280000
   149  C          0.10549000       0.58186000       0.97086000
   150  C          0.89451000       0.41814000       0.02914000
   151  H          0.17760000       0.58630000       0.01670000
   152  H          0.82240000       0.41370000       0.98330000
   153  B          0.44429000       0.20335000       0.22435000
   154  B          0.55571000       0.79665000       0.77565000
   155  B          0.33301000       0.25954000       0.31064000
   156  B          0.66699000       0.74046000       0.68936000
   157  B          0.57751000       0.25854000       0.30945000
   158  B          0.42249000       0.74146000       0.69055000
   159  B          0.57999000       0.27974000       0.21834000
   160  B          0.42001000       0.72026000       0.78166000
   161  B          0.33499000       0.28084000       0.21925000
   162  B          0.66501000       0.71916000       0.78075000
   163  B          0.47189000       0.34715000       0.38525000
   164  B          0.52811000       0.65285000       0.61475000
   165  B          0.64558000       0.36154000       0.32064000
   166  B          0.35442000       0.63846000       0.67936000
   167  B          0.47628000       0.37774000       0.25634000
   168  B          0.52372000       0.62226000       0.74366000
   169  B          0.29828000       0.36344000       0.32154000
   170  B          0.70172000       0.63656000       0.67846000
   171  B          0.48599000       0.42925000       0.36195000
   172  B          0.51401000       0.57075000       0.63805000
   173  H          0.42360000       0.14030000       0.18630000
   174  H          0.57640000       0.85970000       0.81370000
   175  H          0.22770000       0.23530000       0.33830000
   176  H          0.77230000       0.76470000       0.66170000
   177  H          0.66570000       0.23430000       0.33130000
   178  H          0.33430000       0.76570000       0.66870000
   179  H          0.66670000       0.26830000       0.17530000
   180  H          0.33330000       0.73170000       0.82470000
   181  H          0.24260000       0.26730000       0.17730000
   182  H          0.75740000       0.73270000       0.82270000
   183  H          0.48160000       0.34830000       0.44630000
   184  H          0.51840000       0.65170000       0.55370000
   185  H          0.78960000       0.38630000       0.33530000
   186  H          0.21040000       0.61370000       0.66470000
   187  H          0.46860000       0.41430000       0.21830000
   188  H          0.53140000       0.58570000       0.78170000
   189  H          0.16170000       0.39330000       0.34230000
   190  H          0.83830000       0.60670000       0.65770000
   191  H          0.50070000       0.49740000       0.40230000
   192  H          0.49930000       0.50260000       0.59770000
   193  B          0.46771000       0.20005000       0.72555000
   194  B          0.53229000       0.79995000       0.27445000
   195  B          0.35339000       0.25474000       0.81096000
   196  B          0.64661000       0.74526000       0.18904000
   197  B          0.34989000       0.27644000       0.71916000
   198  B          0.65011000       0.72356000       0.28084000
   199  B          0.59809000       0.27954000       0.71876000
   200  B          0.40191000       0.72046000       0.28124000
   201  B          0.60129000       0.25855000       0.81066000
   202  B          0.39871000       0.74145000       0.18934000
   203  B          0.31258000       0.35804000       0.82096000
   204  B          0.68742000       0.64196000       0.17904000
   205  B          0.48608000       0.37514000       0.75526000
   206  B          0.51392000       0.62486000       0.24474000
   207  B          0.65908000       0.36274000       0.82026000
   208  B          0.34092000       0.63726000       0.17974000
   209  B          0.48889000       0.34574000       0.88595000
   210  B          0.51111000       0.65426000       0.11405000
   211  B          0.49518000       0.42725000       0.86095000
   212  B          0.50482000       0.57275000       0.13905000
   213  H          0.46660000       0.13730000       0.68870000
   214  H          0.53340000       0.86270000       0.31130000
   215  H          0.23880000       0.22140000       0.83260000
   216  H          0.76120000       0.77860000       0.16740000
   217  H          0.24760000       0.26230000       0.66470000
   218  H          0.75240000       0.73770000       0.33530000
   219  H          0.68960000       0.26530000       0.67270000
   220  H          0.31040000       0.73470000       0.32730000
   221  H          0.70460000       0.22930000       0.82470000
   222  H          0.29540000       0.77070000       0.17530000
   223  H          0.17670000       0.37630000       0.83470000
   224  H          0.82330000       0.62370000       0.16530000
   225  H          0.48370000       0.41140000       0.71160000
   226  H          0.51630000       0.58860000       0.28840000
   227  H          0.80360000       0.39430000       0.83870000
   228  H          0.19640000       0.60570000       0.16130000
   229  H          0.48460000       0.35530000       0.95370000
   230  H          0.51540000       0.64470000       0.04630000
   231  H          0.49770000       0.50030000       0.90370000
   232  H          0.50230000       0.49970000       0.09630000
