data_HONBIY
_symmetry_space_group_name_H-M    'P1'
_symmetry_Int_Tables_number       1
loop_
_symmetry_equiv_pos_site_id
_symmetry_equiv_pos_as_xyz
1 x,y,z
_cell_length_a                   5.43994
_cell_length_b                   6.35994
_cell_length_c                   11.02328
_cell_angle_alpha                96.70201
_cell_angle_beta                 92.72801
_cell_angle_gamma                98.59901
loop_
_atom_site_label
_atom_site_type_symbol
_atom_site_fract_x
_atom_site_fract_y
_atom_site_fract_z
     1  I          0.63204200       0.24241200       0.70975200
     2  I          0.36795800       0.75758800       0.29024800
     3  Cl         0.70962800       0.35540700       0.42245400
     4  Cl         0.29037200       0.64459300       0.57754600
     5  C          0.84973000       0.09703000       0.58350150
     6  C          0.15027000       0.90297000       0.41649850
     7  Cl         0.04287800       0.14760700       0.24148400
     8  Cl         0.95712200       0.85239300       0.75851600
     9  C          0.87163000       0.16083000       0.46708160
    10  C          0.12837000       0.83917000       0.53291840
    11  C          0.02073000       0.06483000       0.38431160
    12  C         -0.02073000       0.93517000       0.61568840
    13  C          0.29264000       0.49363000       0.92088170
    14  C          0.70736000       0.50637000       0.07911830
    15  H          0.15028000       0.48846400       0.86655800
    16  H          0.84972000       0.51153600       0.13344200
    17  C          0.47384000       0.67323000       0.93667180
    18  C          0.52616000       0.32677000       0.06332820
    19  H          0.45594000       0.79162900       0.89365500
    20  H          0.54406000       0.20837100       0.10634500
    21  C          0.68264000       0.68013000       0.01573180
    22  C          0.31736000       0.31987000       0.98426820
    23  H          0.80810500       0.80302300       0.02654000
    24  H          0.19189500       0.19697700       0.97346000
