data_HONDIA
_symmetry_space_group_name_H-M    'P1'
_symmetry_Int_Tables_number       1
loop_
_symmetry_equiv_pos_site_id
_symmetry_equiv_pos_as_xyz
1 x,y,z
_cell_length_a                   4.28236
_cell_length_b                   6.26079
_cell_length_c                   11.549717
_cell_angle_alpha                96.7015
_cell_angle_beta                 93.9305
_cell_angle_gamma                90.5755
loop_
_atom_site_label
_atom_site_type_symbol
_atom_site_fract_x
_atom_site_fract_y
_atom_site_fract_z
     1  Br         0.28840700       0.90781400       0.67985200
     2  Br         0.71159300       0.09218600       0.32014800
     3  O          0.95765000       0.36513000       0.75182160
     4  O          0.04235000       0.63487000       0.24817840
     5  H          0.01390000       0.35260000       0.82051400
     6  H         -0.01390000       0.64740000       0.17948600
     7  O          0.61245000       0.59323000       0.82669150
     8  O          0.38755000       0.40677000       0.17330850
     9  C          0.72286000       0.49454000       0.74362000
    10  C          0.27714000       0.50546000       0.25638000
    11  C          0.60465000       0.50484000       0.61872000
    12  C          0.39535000       0.49516000       0.38128000
    13  C          0.41706000       0.66684000       0.58092000
    14  C          0.58294000       0.33316000       0.41908000
    15  C          0.31556000       0.66104000       0.46472000
    16  C          0.68444000       0.33896000       0.53528000
    17  H          0.19010600       0.77086000       0.44134400
    18  H          0.80989400       0.22914000       0.55865600
    19  O          0.12235000       0.25563000       0.95346170
    20  O          0.87765000       0.74437000       0.04653830
    21  H          0.20580000       0.32050000       0.01361900
    22  H          0.79420000       0.67950000       0.98638100
    23  C          0.91287000       0.09724000       0.98572000
    24  C          0.08713000       0.90276000       0.01428000
    25  H          0.75681900       0.05682100       0.92170900
    26  H          0.24318100       0.94317900       0.07829100
    27  H          0.80517400       0.15698000       0.05294900
    28  H          0.19482600       0.84302000       0.94705100
