data_HONFEX
_symmetry_space_group_name_H-M    'P1'
_symmetry_Int_Tables_number       1
loop_
_symmetry_equiv_pos_site_id
_symmetry_equiv_pos_as_xyz
1 x,y,z
_cell_length_a                   7.0972
_cell_length_b                   7.213411
_cell_length_c                   15.6844
_cell_angle_alpha                100.7312
_cell_angle_beta                 97.26501
_cell_angle_gamma                101.9572
loop_
_atom_site_label
_atom_site_type_symbol
_atom_site_fract_x
_atom_site_fract_y
_atom_site_fract_z
     1  Cl         0.08442000       0.89712000       0.14521110
     2  Cl         0.91558000       0.10288000       0.85478890
     3  O          0.49846000       0.73326000       0.61133000
     4  O          0.50154000       0.26674000       0.38867000
     5  H          0.40230000       0.70310000       0.63430000
     6  H          0.59770000       0.29690000       0.36570000
     7  O          0.27396000       0.72616000       0.49673000
     8  O          0.72604000       0.27384000       0.50327000
     9  O          0.54605000       0.80045000       0.39732000
    10  O          0.45395000       0.19955000       0.60268000
    11  C          0.44199000       0.74497000       0.53024000
    12  C          0.55801000       0.25503000       0.46976000
    13  C          0.61298000       0.78717000       0.48413000
    14  C          0.38702000       0.21283000       0.51587000
    15  H          0.70230000       0.90830000       0.51550000
    16  H          0.29770000       0.09170000       0.48450000
    17  H          0.68240000       0.68440000       0.48280000
    18  H          0.31760000       0.31560000       0.51720000
    19  C          0.68308000       0.82496000       0.34213000
    20  C          0.31692000       0.17504000       0.65787000
    21  C          0.88338000       0.84987000       0.36824000
    22  C          0.11662000       0.15013000       0.63176000
    23  H          0.93460000       0.85160000       0.42600000
    24  H          0.06540000       0.14840000       0.57400000
    25  C          0.00579000       0.87197000       0.30594000
    26  C         -0.00579000       0.12803000       0.69406000
    27  H          0.13940000       0.88580000       0.32210000
    28  H          0.86060000       0.11420000       0.67790000
    29  C          0.93139000       0.87347000       0.22174000
    30  C          0.06861000       0.12653000       0.77826000
    31  C          0.73289000       0.84907000       0.19654000
    32  C          0.26711000       0.15093000       0.80346000
    33  H          0.68230000       0.84710000       0.13860000
    34  H          0.31770000       0.15290000       0.86140000
    35  C          0.60929000       0.82757000       0.25694000
    36  C          0.39071000       0.17243000       0.74306000
    37  H          0.47590000       0.81480000       0.24010000
    38  H          0.52410000       0.18520000       0.75990000
    39  N          0.21727000       0.66296000       0.69813000
    40  N          0.78273000       0.33704000       0.30187000
    41  C          0.03361000       0.61728000       0.65924000
    42  C          0.96639000       0.38272000       0.34076000
    43  H          0.00640000       0.61200000       0.59910000
    44  H         -0.00640000       0.38800000       0.40090000
    45  C          0.87721000       0.57598000       0.70414000
    46  C          0.12279000       0.42402000       0.29586000
    47  H          0.74930000       0.54370000       0.67410000
    48  H          0.25070000       0.45630000       0.32590000
    49  C          0.91381000       0.58318000       0.79174000
    50  C          0.08619000       0.41682000       0.20826000
    51  H          0.81070000       0.55290000       0.82180000
    52  H          0.18930000       0.44710000       0.17820000
    53  C          0.10758000       0.63637000       0.83754000
    54  C          0.89242000       0.36363000       0.16246000
    55  C          0.25688000       0.67356000       0.78744000
    56  C          0.74312000       0.32644000       0.21256000
    57  C          0.45338000       0.72658000       0.82934000
    58  C          0.54662000       0.27342000       0.17066000
    59  H          0.55260000       0.75300000       0.79680000
    60  H          0.44740000       0.24700000       0.20320000
    61  C          0.49801000       0.73899000       0.91754000
    62  C          0.50199000       0.26101000       0.08246000
    63  H          0.62820000       0.77280000       0.94480000
    64  H          0.37180000       0.22720000       0.05520000
    65  C          0.34821100       0.70071000       0.96804000
    66  C          0.65178900       0.29929000       0.03196000
    67  H          0.38020000       0.70900000       0.02810000
    68  H          0.61980000       0.29100000       0.97190000
    69  C          0.16021000       0.65259000       0.92894000
    70  C          0.83979000       0.34741000       0.07106000
    71  H          0.06270000       0.62940000       0.96270000
    72  H          0.93730000       0.37060000       0.03730000
