data_HONTAG
_symmetry_space_group_name_H-M    'P1'
_symmetry_Int_Tables_number       1
loop_
_symmetry_equiv_pos_site_id
_symmetry_equiv_pos_as_xyz
1 x,y,z
_cell_length_a                   26.7804
_cell_length_b                   7.4452
_cell_length_c                   19.4713
_cell_angle_alpha                90.0
_cell_angle_beta                 131.1012
_cell_angle_gamma                90.0
loop_
_atom_site_label
_atom_site_type_symbol
_atom_site_fract_x
_atom_site_fract_y
_atom_site_fract_z
     1  O         -0.00637100       0.23373000       0.01217120
     2  O          0.00637100       0.23373000       0.48782880
     3  O          0.49362900       0.73373000       0.01217120
     4  O          0.50637100       0.73373000       0.48782880
     5  O          0.00637100       0.76627000       0.98782880
     6  O         -0.00637100       0.76627000       0.51217120
     7  O          0.50637100       0.26627000       0.98782880
     8  O          0.49362900       0.26627000       0.51217120
     9  O          0.03250100       0.00133000       0.10860120
    10  O          0.96749900       0.00133000       0.39139880
    11  O          0.53250100       0.50133000       0.10860120
    12  O          0.46749900       0.50133000       0.39139880
    13  O          0.96749900      -0.00133000       0.89139880
    14  O          0.03250100      -0.00133000       0.60860120
    15  O          0.46749900       0.49867000       0.89139880
    16  O          0.53250100       0.49867000       0.60860120
    17  H          0.98550000       0.13010000       0.96910000
    18  H          0.01450000       0.13010000       0.53090000
    19  H          0.48550000       0.63010000       0.96910000
    20  H          0.51450000       0.63010000       0.53090000
    21  H          0.01450000       0.86990000       0.03090000
    22  H          0.98550000       0.86990000       0.46910000
    23  H          0.51450000       0.36990000       0.03090000
    24  H          0.48550000       0.36990000       0.46910000
    25  O          0.11199100       0.66723000       0.36756130
    26  O          0.88800900       0.66723000       0.13243870
    27  O          0.61199100       0.16723000       0.36756130
    28  O          0.38800900       0.16723000       0.13243870
    29  O          0.88800900       0.33277000       0.63243870
    30  O          0.11199100       0.33277000       0.86756130
    31  O          0.38800900       0.83277000       0.63243870
    32  O          0.61199100       0.83277000       0.86756130
    33  H          0.13450000       0.60620000       0.42260000
    34  H          0.86550000       0.60620000       0.07740000
    35  H          0.63450000       0.10620000       0.42260000
    36  H          0.36550000       0.10620000       0.07740000
    37  H          0.86550000       0.39380000       0.57740000
    38  H          0.13450000       0.39380000       0.92260000
    39  H          0.36550000       0.89380000       0.57740000
    40  H          0.63450000       0.89380000       0.92260000
    41  C          0.04163140       0.29564000       0.16324180
    42  C          0.95836860       0.29564000       0.33675820
    43  C          0.54163140       0.79564000       0.16324180
    44  C          0.45836860       0.79564000       0.33675820
    45  C          0.95836860       0.70436000       0.83675820
    46  C          0.04163140       0.70436000       0.66324180
    47  C          0.45836860       0.20436000       0.83675820
    48  C          0.54163140       0.20436000       0.66324180
    49  C          0.06944140       0.23594000       0.25020180
    50  C          0.93055860       0.23594000       0.24979820
    51  C          0.56944140       0.73594000       0.25020180
    52  C          0.43055860       0.73594000       0.24979820
    53  C          0.93055860       0.76406000       0.74979820
    54  C          0.06944140       0.76406000       0.75020180
    55  C          0.43055860       0.26406000       0.74979820
    56  C          0.56944140       0.26406000       0.75020180
    57  H          0.07290000       0.11070000       0.26220000
    58  H          0.92710000       0.11070000       0.23780000
    59  H          0.57290000       0.61070000       0.26220000
    60  H          0.42710000       0.61070000       0.23780000
    61  H          0.92710000       0.88930000       0.73780000
    62  H          0.07290000       0.88930000       0.76220000
    63  H          0.42710000       0.38930000       0.73780000
    64  H          0.57290000       0.38930000       0.76220000
    65  C          0.09191150       0.35794000       0.31892190
    66  C          0.90808850       0.35794000       0.18107810
    67  C          0.59191150       0.85794000       0.31892190
    68  C          0.40808850       0.85794000       0.18107810
    69  C          0.90808850       0.64206000       0.68107810
    70  C          0.09191150       0.64206000       0.81892190
    71  C          0.40808850       0.14206000       0.68107810
    72  C          0.59191150       0.14206000       0.81892190
    73  H          0.11030000       0.31630000       0.37760000
    74  H          0.88970000       0.31630000       0.12240000
    75  H          0.61030000       0.81630000       0.37760000
    76  H          0.38970000       0.81630000       0.12240000
    77  H          0.88970000       0.68370000       0.62240000
    78  H          0.11030000       0.68370000       0.87760000
    79  H          0.38970000       0.18370000       0.62240000
    80  H          0.61030000       0.18370000       0.87760000
    81  C          0.08753140       0.54224000       0.30194190
    82  C          0.91246860       0.54224000       0.19805810
    83  C          0.58753140       0.04224000       0.30194190
    84  C          0.41246860       0.04224000       0.19805810
    85  C          0.91246860       0.45776000       0.69805810
    86  C          0.08753140       0.45776000       0.80194190
    87  C          0.41246860       0.95776000       0.69805810
    88  C          0.58753140       0.95776000       0.80194190
    89  C          0.05762140       0.60264000       0.21469180
    90  C          0.94237860       0.60264000       0.28530820
    91  C          0.55762140       0.10264000       0.21469180
    92  C          0.44237860       0.10264000       0.28530820
    93  C          0.94237860       0.39736000       0.78530820
    94  C          0.05762140       0.39736000       0.71469180
    95  C          0.44237860       0.89736000       0.78530820
    96  C          0.55762140       0.89736000       0.71469180
    97  H          0.05260000       0.72780000       0.20220000
    98  H          0.94740000       0.72780000       0.29780000
    99  H          0.55260000       0.22780000       0.20220000
   100  H          0.44740000       0.22780000       0.29780000
   101  H          0.94740000       0.27220000       0.79780000
   102  H          0.05260000       0.27220000       0.70220000
   103  H          0.44740000       0.77220000       0.79780000
   104  H          0.55260000       0.77220000       0.70220000
   105  C          0.03533140       0.48084000       0.14648190
   106  C          0.96466860       0.48084000       0.35351810
   107  C          0.53533140       0.98084000       0.14648190
   108  C          0.46466860       0.98084000       0.35351810
   109  C          0.96466860       0.51916000       0.85351810
   110  C          0.03533140       0.51916000       0.64648190
   111  C          0.46466860       0.01916000       0.85351810
   112  C          0.53533140       0.01916000       0.64648190
   113  H          0.01540000       0.52290000       0.08730000
   114  H          0.98460000       0.52290000       0.41270000
   115  H          0.51540000       0.02290000       0.08730000
   116  H          0.48460000       0.02290000       0.41270000
   117  H          0.98460000       0.47710000       0.91270000
   118  H          0.01540000       0.47710000       0.58730000
   119  H          0.48460000       0.97710000       0.91270000
   120  H          0.51540000       0.97710000       0.58730000
   121  C          0.02177140       0.16584000       0.09261180
   122  C          0.97822860       0.16584000       0.40738820
   123  C          0.52177140       0.66584000       0.09261180
   124  C          0.47822860       0.66584000       0.40738820
   125  C          0.97822860       0.83416000       0.90738820
   126  C          0.02177140       0.83416000       0.59261180
   127  C          0.47822860       0.33416000       0.90738820
   128  C          0.52177140       0.33416000       0.59261180
   129  N          0.31456130       0.03844000       0.96092160
   130  N          0.68543870       0.03844000       0.53907840
   131  N          0.81456130       0.53844000       0.96092160
   132  N          0.18543870       0.53844000       0.53907840
   133  N          0.68543870       0.96156000       0.03907840
   134  N          0.31456130       0.96156000       0.46092160
   135  N          0.18543870       0.46156000       0.03907840
   136  N          0.81456130       0.46156000       0.46092160
   137  C          0.25142160       0.08604000       0.89282000
   138  C          0.74857840       0.08604000       0.60718000
   139  C          0.75142160       0.58604000       0.89282000
   140  C          0.24857840       0.58604000       0.60718000
   141  C          0.74857840       0.91396000       0.10718000
   142  C          0.25142160       0.91396000       0.39282000
   143  C          0.24857840       0.41396000       0.10718000
   144  C          0.75142160       0.41396000       0.39282000
   145  H          0.22630000       0.12830000       0.90810000
   146  H          0.77370000       0.12830000       0.59190000
   147  H          0.72630000       0.62830000       0.90810000
   148  H          0.27370000       0.62830000       0.59190000
   149  H          0.77370000       0.87170000       0.09190000
   150  H          0.22630000       0.87170000       0.40810000
   151  H          0.27370000       0.37170000       0.09190000
   152  H          0.72630000       0.37170000       0.40810000
   153  C          0.22063160       0.07734000       0.80132000
   154  C          0.77936840       0.07734000       0.69868000
   155  C          0.72063160       0.57734000       0.80132000
   156  C          0.27936840       0.57734000       0.69868000
   157  C          0.77936840       0.92266000       0.19868000
   158  C          0.22063160       0.92266000       0.30132000
   159  C          0.27936840       0.42266000       0.19868000
   160  C          0.72063160       0.42266000       0.30132000
   161  H          0.17520000       0.10820000       0.75550000
   162  H          0.82480000       0.10820000       0.74450000
   163  H          0.67520000       0.60820000       0.75550000
   164  H          0.32480000       0.60820000       0.74450000
   165  H          0.82480000       0.89180000       0.24450000
   166  H          0.17520000       0.89180000       0.25550000
   167  H          0.32480000       0.39180000       0.24450000
   168  H          0.67520000       0.39180000       0.25550000
   169  C          0.25749150       0.02234000       0.77759190
   170  C          0.74250850       0.02234000       0.72240810
   171  C          0.75749150       0.52234000       0.77759190
   172  C          0.24250850       0.52234000       0.72240810
   173  C          0.74250850       0.97766000       0.22240810
   174  C          0.25749150       0.97766000       0.27759190
   175  C          0.24250850       0.47766000       0.22240810
   176  C          0.75749150       0.47766000       0.27759190
   177  C          0.32295150       0.96996000       0.84845190
   178  C          0.67704850       0.96996000       0.65154810
   179  C          0.82295150       0.46996000       0.84845190
   180  C          0.17704850       0.46996000       0.65154810
   181  C          0.67704850       0.03004000       0.15154810
   182  C          0.32295150       0.03004000       0.34845190
   183  C          0.17704850       0.53004000       0.15154810
   184  C          0.82295150       0.53004000       0.34845190
   185  H          0.34940000       0.92850000       0.83530000
   186  H          0.65060000       0.92850000       0.66470000
   187  H          0.84940000       0.42850000       0.83530000
   188  H          0.15060000       0.42850000       0.66470000
   189  H          0.65060000       0.07150000       0.16470000
   190  H          0.34940000       0.07150000       0.33530000
   191  H          0.15060000       0.57150000       0.16470000
   192  H          0.84940000       0.57150000       0.33530000
   193  C          0.34922160       0.97846000       0.93762000
   194  C          0.65077840       0.97846000       0.56238000
   195  C          0.84922160       0.47846000       0.93762000
   196  C          0.15077840       0.47846000       0.56238000
   197  C          0.65077840       0.02154000       0.06238000
   198  C          0.34922160       0.02154000       0.43762000
   199  C          0.15077840       0.52154000       0.06238000
   200  C          0.84922160       0.52154000       0.43762000
   201  H          0.39370000       0.94060000       0.98460000
   202  H          0.60630000       0.94060000       0.51540000
   203  H          0.89370000       0.44060000       0.98460000
   204  H          0.10630000       0.44060000       0.51540000
   205  H          0.60630000       0.05940000       0.01540000
   206  H          0.39370000       0.05940000       0.48460000
   207  H          0.10630000       0.55940000       0.01540000
   208  H          0.89370000       0.55940000       0.48460000
   209  C          0.22787140       0.02024000       0.68076190
   210  C          0.77212860       0.02024000       0.81923810
   211  C          0.72787140       0.52024000       0.68076190
   212  C          0.27212860       0.52024000       0.81923810
   213  C          0.77212860       0.97976000       0.31923810
   214  C          0.22787140       0.97976000       0.18076190
   215  C          0.27212860       0.47976000       0.31923810
   216  C          0.72787140       0.47976000       0.18076190
   217  C          0.16300150       0.96046000       0.61109190
   218  C          0.83699850       0.96046000       0.88890810
   219  C          0.66300150       0.46046000       0.61109190
   220  C          0.33699850       0.46046000       0.88890810
   221  C          0.83699850       0.03954000       0.38890810
   222  C          0.16300150       0.03954000       0.11109190
   223  C          0.33699850       0.53954000       0.38890810
   224  C          0.66300150       0.53954000       0.11109190
   225  H          0.13690000       0.92210000       0.62530000
   226  H          0.86310000       0.92210000       0.87470000
   227  H          0.63690000       0.42210000       0.62530000
   228  H          0.36310000       0.42210000       0.87470000
   229  H          0.86310000       0.07790000       0.37470000
   230  H          0.13690000       0.07790000       0.12530000
   231  H          0.36310000       0.57790000       0.37470000
   232  H          0.63690000       0.57790000       0.12530000
   233  C          0.13658150       0.95666000       0.52172000
   234  C          0.86341850       0.95666000       0.97828000
   235  C          0.63658150       0.45666000       0.52172000
   236  C          0.36341850       0.45666000       0.97828000
   237  C          0.86341850       0.04334000       0.47828000
   238  C          0.13658150       0.04334000       0.02172000
   239  C          0.36341850       0.54334000       0.47828000
   240  C          0.63658150       0.54334000       0.02172000
   241  H          0.09260000       0.91510000       0.47490000
   242  H          0.90740000       0.91510000       0.02510000
   243  H          0.59260000       0.41510000       0.47490000
   244  H          0.40740000       0.41510000       0.02510000
   245  H          0.90740000       0.08490000       0.52510000
   246  H          0.09260000       0.08490000       0.97490000
   247  H          0.40740000       0.58490000       0.52510000
   248  H          0.59260000       0.58490000       0.97490000
   249  C          0.17420160       0.01354000       0.50022000
   250  C          0.82579840       0.01354000      -0.00022000
   251  C          0.67420160       0.51354000       0.50022000
   252  C          0.32579840       0.51354000      -0.00022000
   253  C          0.82579840      -0.01354000       0.49978000
   254  C          0.17420160      -0.01354000       0.00022000
   255  C          0.32579840       0.48646000       0.49978000
   256  C          0.67420160       0.48646000       0.00022000
   257  H          0.15600000       0.01110000       0.43880000
   258  H          0.84400000       0.01110000       0.06120000
   259  H          0.65600000       0.51110000       0.43880000
   260  H          0.34400000       0.51110000       0.06120000
   261  H          0.84400000      -0.01110000       0.56120000
   262  H          0.15600000      -0.01110000       0.93880000
   263  H          0.34400000       0.48890000       0.56120000
   264  H          0.65600000       0.48890000       0.93880000
   265  C          0.23814160       0.07374000       0.56822000
   266  C          0.76185840       0.07374000       0.93178000
   267  C          0.73814160       0.57374000       0.56822000
   268  C          0.26185840       0.57374000       0.93178000
   269  C          0.76185840       0.92626000       0.43178000
   270  C          0.23814160       0.92626000       0.06822000
   271  C          0.26185840       0.42626000       0.43178000
   272  C          0.73814160       0.42626000       0.06822000
   273  H          0.26370000       0.11340000       0.55320000
   274  H          0.73630000       0.11340000       0.94680000
   275  H          0.76370000       0.61340000       0.55320000
   276  H          0.23630000       0.61340000       0.94680000
   277  H          0.73630000       0.88660000       0.44680000
   278  H          0.26370000       0.88660000       0.05320000
   279  H          0.23630000       0.38660000       0.44680000
   280  H          0.76370000       0.38660000       0.05320000
   281  C          0.26544150       0.07684000       0.65818190
   282  C          0.73455850       0.07684000       0.84181810
   283  C          0.76544150       0.57684000       0.65818190
   284  C          0.23455850       0.57684000       0.84181810
   285  C          0.73455850       0.92316000       0.34181810
   286  C          0.26544150       0.92316000       0.15818190
   287  C          0.23455850       0.42316000       0.34181810
   288  C          0.76544150       0.42316000       0.15818190
   289  H          0.30960000       0.11720000       0.70460000
   290  H          0.69040000       0.11720000       0.79540000
   291  H          0.80960000       0.61720000       0.70460000
   292  H          0.19040000       0.61720000       0.79540000
   293  H          0.69040000       0.88280000       0.29540000
   294  H          0.30960000       0.88280000       0.20460000
   295  H          0.19040000       0.38280000       0.29540000
   296  H          0.80960000       0.38280000       0.20460000
