data_HONTIO
_symmetry_space_group_name_H-M    'P1'
_symmetry_Int_Tables_number       1
loop_
_symmetry_equiv_pos_site_id
_symmetry_equiv_pos_as_xyz
1 x,y,z
_cell_length_a                   11.6934
_cell_length_b                   8.6943
_cell_length_c                   12.7224
_cell_angle_alpha                90.0
_cell_angle_beta                 94.9207
_cell_angle_gamma                90.0
loop_
_atom_site_label
_atom_site_type_symbol
_atom_site_fract_x
_atom_site_fract_y
_atom_site_fract_z
     1  O          0.59449120       0.34856170       0.55120100
     2  O          0.40550880       0.84856170       0.94879900
     3  O          0.40550880       0.65143830       0.44879900
     4  O          0.59449120       0.15143830       0.05120100
     5  H          0.54110000       0.40760000       0.56540000
     6  H          0.45890000       0.90760000       0.93460000
     7  H          0.45890000       0.59240000       0.43460000
     8  H          0.54110000       0.09240000       0.06540000
     9  O          0.56651130       0.46630170       0.39396110
    10  O          0.43348870       0.96630170       0.10603890
    11  O          0.43348870       0.53369830       0.60603890
    12  O          0.56651130       0.03369830       0.89396110
    13  O          0.97495110       0.00489170       0.32074110
    14  O          0.02504890       0.50489170       0.17925890
    15  O          0.02504890      -0.00489170       0.67925890
    16  O          0.97495110       0.49510830       0.82074110
    17  H          0.98510000       0.02150000       0.25710000
    18  H          0.01490000       0.52150000       0.24290000
    19  H          0.01490000       0.97850000       0.74290000
    20  H          0.98510000       0.47850000       0.75710000
    21  C          0.70958170       0.27222000       0.41726160
    22  C          0.29041830       0.77222000       0.08273840
    23  C          0.29041830       0.72778000       0.58273840
    24  C          0.70958170       0.22778000       0.91726160
    25  C          0.76963160       0.17052000       0.48570160
    26  C          0.23036840       0.67052000       0.01429840
    27  C          0.23036840       0.82948000       0.51429840
    28  C          0.76963160       0.32948000       0.98570160
    29  H          0.74930000       0.16130000       0.55610000
    30  H          0.25070000       0.66130000       0.94390000
    31  H          0.25070000       0.83870000       0.44390000
    32  H          0.74930000       0.33870000       0.05610000
    33  C          0.85822170       0.08282000       0.45315160
    34  C          0.14177830       0.58282000       0.04684840
    35  C          0.14177830       0.91718000       0.54684840
    36  C          0.85822170       0.41718000       0.95315160
    37  H          0.89910000       0.01470000       0.50120000
    38  H          0.10090000       0.51470000      -0.00120000
    39  H          0.10090000      -0.01470000       0.49880000
    40  H          0.89910000       0.48530000       0.00120000
    41  C          0.88775160       0.09422000       0.34956160
    42  C          0.11224840       0.59422000       0.15043840
    43  C          0.11224840       0.90578000       0.65043840
    44  C          0.88775160       0.40578000       0.84956160
    45  C          0.82759160       0.19572000       0.27947160
    46  C          0.17240840       0.69572000       0.22052840
    47  C          0.17240840       0.80428000       0.72052840
    48  C          0.82759160       0.30428000       0.77947160
    49  H          0.84740000       0.20450000       0.20890000
    50  H          0.15260000       0.70450000       0.29110000
    51  H          0.15260000       0.79550000       0.79110000
    52  H          0.84740000       0.29550000       0.70890000
    53  C          0.73929170       0.28272000       0.31365160
    54  C          0.26070830       0.78272000       0.18634840
    55  C          0.26070830       0.71728000       0.68634840
    56  C          0.73929170       0.21728000       0.81365160
    57  H          0.69810000       0.35090000       0.26590000
    58  H          0.30190000       0.85090000       0.23410000
    59  H          0.30190000       0.64910000       0.73410000
    60  H          0.69810000       0.14910000       0.76590000
    61  C          0.61692180       0.36952000       0.45226170
    62  C          0.38307820       0.86952000       0.04773830
    63  C          0.38307820       0.63048000       0.54773830
    64  C          0.61692180       0.13048000       0.95226170
    65  N          0.00986130      -0.00151820       0.89291130
    66  N         -0.00986130       0.49848180       0.60708870
    67  N         -0.00986130       0.00151820       0.10708870
    68  N          0.00986130       0.50151820       0.39291130
    69  C          0.92186830       0.92692000       0.93318160
    70  C          0.07813170       0.42692000       0.56681840
    71  C          0.07813170       0.07308000       0.06681840
    72  C          0.92186830       0.57308000       0.43318160
    73  C          0.08845170       0.07212000       0.95870160
    74  C          0.91154830       0.57212000       0.54129840
    75  C          0.91154830       0.92788000       0.04129840
    76  C          0.08845170       0.42788000       0.45870160
    77  C          0.83679820       0.84502000       0.85807160
    78  C          0.16320180       0.34502000       0.64192840
    79  C          0.16320180       0.15498000       0.14192840
    80  C          0.83679820       0.65498000       0.35807160
    81  H          0.84870000       0.86780000       0.78280000
    82  H          0.15130000       0.36780000       0.71720000
    83  H          0.15130000       0.13220000       0.21720000
    84  H          0.84870000       0.63220000       0.28280000
    85  H          0.84020000       0.73750000       0.85980000
    86  H          0.15980000       0.23750000       0.64020000
    87  H          0.15980000       0.26250000       0.14020000
    88  H          0.84020000       0.76250000       0.35980000
    89  H          0.75260000       0.87660000       0.86460000
    90  H          0.24740000       0.37660000       0.63540000
    91  H          0.24740000       0.12340000       0.13540000
    92  H          0.75260000       0.62340000       0.36460000
    93  C          0.18449170       0.15213000       0.91025160
    94  C          0.81550830       0.65213000       0.58974840
    95  C          0.81550830       0.84787000       0.08974840
    96  C          0.18449170       0.34787000       0.41025160
    97  H          0.19090000       0.13250000       0.84000000
    98  H          0.80910000       0.63250000       0.66000000
    99  H          0.80910000       0.86750000       0.16000000
   100  H          0.19090000       0.36750000       0.34000000
   101  H          0.25850000       0.12620000       0.94330000
   102  H          0.74150000       0.62620000       0.55670000
   103  H          0.74150000       0.87380000       0.05670000
   104  H          0.25850000       0.37380000       0.44330000
   105  H          0.17530000       0.26360000       0.91310000
   106  H          0.82470000       0.76360000       0.58690000
   107  H          0.82470000       0.73640000       0.08690000
   108  H          0.17530000       0.23640000       0.41310000
   109  N          0.41237170       0.10112000       0.37538150
   110  N          0.58762830       0.60112000       0.12461850
   111  N          0.58762830       0.89888000       0.62461850
   112  N          0.41237170       0.39888000       0.87538150
   113  C          0.48332190       0.01733000       0.35944170
   114  C          0.51667810       0.51733000       0.14055830
   115  C          0.51667810       0.98267000       0.64055830
   116  C          0.48332190       0.48267000       0.85944170
   117  C          0.57473180       0.90963000       0.33854180
   118  C          0.42526820       0.40963000       0.16145820
   119  C          0.42526820       0.09037000       0.66145820
   120  C          0.57473180       0.59037000       0.83854180
   121  H          0.54320000       0.82360000       0.29500000
   122  H          0.45680000       0.32360000       0.20500000
   123  H          0.45680000       0.17640000       0.70500000
   124  H          0.54320000       0.67640000       0.79500000
   125  H          0.60270000       0.86150000       0.40180000
   126  H          0.39730000       0.36150000       0.09820000
   127  H          0.39730000       0.13850000       0.59820000
   128  H          0.60270000       0.63850000       0.90180000
   129  H          0.63960000       0.96480000       0.31140000
   130  H          0.36040000       0.46480000       0.18860000
   131  H          0.36040000       0.03520000       0.68860000
   132  H          0.63960000       0.53520000       0.81140000
