data_HORWIX
_symmetry_space_group_name_H-M    'P1'
_symmetry_Int_Tables_number       1
loop_
_symmetry_equiv_pos_site_id
_symmetry_equiv_pos_as_xyz
1 x,y,z
_cell_length_a                   10.75453
_cell_length_b                   6.4716818
_cell_length_c                   30.03139
_cell_angle_alpha                90.0
_cell_angle_beta                 96.4563
_cell_angle_gamma                90.0
loop_
_atom_site_label
_atom_site_type_symbol
_atom_site_fract_x
_atom_site_fract_y
_atom_site_fract_z
     1  O          0.10440600       0.02924120       0.35591200
     2  O          0.89559400       0.52924120       0.14408800
     3  O          0.89559400       0.97075880       0.64408800
     4  O          0.10440600       0.47075880       0.85591200
     5  N          0.28829700       0.08894140       0.32812300
     6  N          0.71170300       0.58894140       0.17187700
     7  N          0.71170300       0.91105860       0.67187700
     8  N          0.28829700       0.41105860       0.82812300
     9  N          0.28560800       0.95901850       0.39997300
    10  N          0.71439200       0.45901850       0.10002700
    11  N          0.71439200       0.04098150       0.60002700
    12  N          0.28560800       0.54098150       0.89997300
    13  C          0.22537800       0.12375150       0.28401300
    14  C          0.77462200       0.62375150       0.21598700
    15  C          0.77462200       0.87624850       0.71598700
    16  C          0.22537800       0.37624850       0.78401300
    17  C          0.15547900       0.30246160       0.27508300
    18  C          0.84452100       0.80246160       0.22491700
    19  C          0.84452100       0.69753840       0.72491700
    20  C          0.15547900       0.19753840       0.77508300
    21  H          0.15375500       0.40373600       0.29697300
    22  H          0.84624500       0.90373600       0.20302700
    23  H          0.84624500       0.59626400       0.70302700
    24  H          0.15375500       0.09626400       0.79697300
    25  C          0.08803900       0.32883160       0.23313300
    26  C          0.91196100       0.82883160       0.26686700
    27  C          0.91196100       0.67116840       0.76686700
    28  C          0.08803900       0.17116840       0.73313300
    29  H          0.04159100       0.44857200       0.22677800
    30  H          0.95840900       0.94857200       0.27322200
    31  H          0.95840900       0.55142800       0.77322200
    32  H          0.04159100       0.05142800       0.72677800
    33  C          0.09024900       0.17564170       0.20072300
    34  C          0.90975100       0.67564170       0.29927700
    35  C          0.90975100       0.82435830       0.79927700
    36  C          0.09024900       0.32435830       0.70072300
    37  H          0.04393800       0.19199000       0.17286900
    38  H          0.95606200       0.69199000       0.32713100
    39  H          0.95606200       0.80801000       0.82713100
    40  H          0.04393800       0.30801000       0.67286900
    41  C          0.16117100      -0.00108160       0.20980300
    42  C          0.83882900       0.49891840       0.29019700
    43  C          0.83882900       0.00108160       0.79019700
    44  C          0.16117100       0.50108160       0.70980300
    45  H          0.16171700       0.89745500       0.18789800
    46  H          0.83828300       0.39745500       0.31210200
    47  H          0.83828300       0.10254500       0.81210200
    48  H          0.16171700       0.60254500       0.68789800
    49  C          0.23238900       0.97011840       0.25154300
    50  C          0.76761100       0.47011840       0.24845700
    51  C          0.76761100       0.02988160       0.74845700
    52  C          0.23238900       0.52988160       0.75154300
    53  C          0.30825110       0.78351830       0.25925400
    54  C          0.69174890       0.28351830       0.24074600
    55  C          0.69174890       0.21648170       0.74074600
    56  C          0.30825110       0.71648170       0.75925400
    57  H          0.27883400       0.66693000       0.24329800
    58  H          0.72116600       0.16693000       0.25670200
    59  H          0.72116600       0.33307000       0.75670200
    60  H          0.27883400       0.83307000       0.74329800
    61  C          0.41549120       0.75922810       0.28657400
    62  C          0.58450880       0.25922810       0.21342600
    63  C          0.58450880       0.24077190       0.71342600
    64  C          0.41549120       0.74077190       0.78657400
    65  H          0.45082700       0.62793000       0.28743700
    66  H          0.54917300       0.12793000       0.21256300
    67  H          0.54917300       0.37207000       0.71256300
    68  H          0.45082700       0.87207000       0.78743700
    69  C          0.48255100       0.91545810       0.31497400
    70  C          0.51744900       0.41545810       0.18502600
    71  C          0.51744900       0.08454190       0.68502600
    72  C          0.48255100       0.58454190       0.81497400
    73  C          0.61353110       0.90418000       0.32451400
    74  C          0.38646890       0.40418000       0.17548600
    75  C          0.38646890       0.09582000       0.67548600
    76  C          0.61353110       0.59582000       0.82451400
    77  H          0.65612700       0.79308500       0.31372900
    78  H          0.34387300       0.29308500       0.18627100
    79  H          0.34387300       0.20691500       0.68627100
    80  H          0.65612700       0.70691500       0.81372900
    81  C          0.67987110       0.05443000       0.34952400
    82  C          0.32012890       0.55443000       0.15047600
    83  C          0.32012890       0.94557000       0.65047600
    84  C          0.67987110       0.44557000       0.84952400
    85  H          0.76634500       0.04329500       0.35552400
    86  H          0.23365500       0.54329500       0.14447600
    87  H          0.23365500       0.95670500       0.64447600
    88  H          0.76634500       0.45670500       0.85552400
    89  C          0.61860110       0.22203000       0.36581400
    90  C          0.38139890       0.72203000       0.13418600
    91  C          0.38139890       0.77797000       0.63418600
    92  C          0.61860110       0.27797000       0.86581400
    93  H          0.66407700       0.32423800       0.38217200
    94  H          0.33592300       0.82423800       0.11782800
    95  H          0.33592300       0.67576200       0.61782800
    96  H          0.66407700       0.17576200       0.88217200
    97  C          0.48866100       0.23702000       0.35761400
    98  C          0.51133900       0.73702000       0.14238600
    99  C          0.51133900       0.76298000       0.64238600
   100  C          0.48866100       0.26298000       0.85761400
   101  H          0.44690500       0.34905200       0.36837000
   102  H          0.55309500       0.84905200       0.13163000
   103  H          0.55309500       0.65094800       0.63163000
   104  H          0.44690500       0.15094800       0.86837000
   105  C          0.42232900       0.08219170       0.33314300
   106  C          0.57767100       0.58219170       0.16685700
   107  C          0.57767100       0.91780830       0.66685700
   108  C          0.42232900       0.41780830       0.83314300
   109  C          0.22185900       0.02271150       0.36142300
   110  C          0.77814100       0.52271150       0.13857700
   111  C          0.77814100       0.97728850       0.63857700
   112  C          0.22185900       0.47728850       0.86142300
   113  H          0.24301200       0.90480000       0.41994000
   114  H          0.75698800       0.40480000       0.08006000
   115  H          0.75698800       0.09520000       0.58006000
   116  H          0.24301200       0.59520000       0.91994000
   117  H          0.36409000       0.92880000       0.40105000
   118  H          0.63591000       0.42880000       0.09895000
   119  H          0.63591000       0.07120000       0.59895000
   120  H          0.36409000       0.57120000       0.90105000
   121  O          0.48023900       0.73698810       0.50061400
   122  O          0.51976100       0.23698810      -0.00061400
   123  O          0.51976100       0.26301190       0.49938600
   124  O          0.48023900       0.76301190       0.00061400
   125  O          0.52666900       0.73688000       0.43212300
   126  O          0.47333100       0.23688000       0.06787700
   127  O          0.47333100       0.26312000       0.56787700
   128  O          0.52666900       0.76312000       0.93212300
   129  O          0.81208900       0.51553870       0.61477300
   130  O          0.18791100       0.01553870       0.88522700
   131  O          0.18791100       0.48446130       0.38522700
   132  O          0.81208900      -0.01553870       0.11477300
   133  O          0.00582800       0.56044870       0.60251300
   134  O         -0.00582800       0.06044870       0.89748700
   135  O         -0.00582800       0.43955130       0.39748700
   136  O          0.00582800       0.93955130       0.10251300
   137  O          0.11081700       0.81129890       0.45930200
   138  O          0.88918300       0.31129890       0.04069800
   139  O          0.88918300       0.18870110       0.54069800
   140  O          0.11081700       0.68870110       0.95930200
   141  O          0.95548700       0.92553880       0.40894200
   142  O          0.04451300       0.42553880       0.09105800
   143  O          0.04451300       0.07446120       0.59105800
   144  O          0.95548700       0.57446120       0.90894200
   145  N          0.55571900       0.73419810       0.47285400
   146  N          0.44428100       0.23419810       0.02714600
   147  N          0.44428100       0.26580190       0.52714600
   148  N          0.55571900       0.76580190       0.97285400
   149  N          0.89281900       0.56925870       0.59133300
   150  N          0.10718100       0.06925870       0.90866700
   151  N          0.10718100       0.43074130       0.40866700
   152  N          0.89281900       0.93074130       0.09133300
   153  C          0.68964100       0.72463820       0.48902400
   154  C          0.31035900       0.22463820       0.01097600
   155  C          0.31035900       0.27536180       0.51097600
   156  C          0.68964100       0.77536180       0.98902400
   157  C          0.77467100       0.78432840       0.46003300
   158  C          0.22532900       0.28432840       0.03996700
   159  C          0.22532900       0.21567160       0.53996700
   160  C          0.77467100       0.71567160       0.96003300
   161  H          0.74778400       0.82896400       0.43111300
   162  H          0.25221600       0.32896400       0.06888700
   163  H          0.25221600       0.17103600       0.56888700
   164  H          0.74778400       0.67103600       0.93111300
   165  C          0.90158900       0.77543850       0.47554300
   166  C          0.09841100       0.27543850       0.02445700
   167  C          0.09841100       0.22456150       0.52445700
   168  C          0.90158900       0.72456150       0.97554300
   169  C          0.94029900       0.70555860       0.51878300
   170  C          0.05970100       0.20555860       0.98121700
   171  C          0.05970100       0.29444140       0.48121700
   172  C          0.94029900       0.79444140       0.01878300
   173  H          0.02496100       0.69844400       0.52918300
   174  H          0.97503900       0.19844400       0.97081700
   175  H          0.97503900       0.30155600       0.47081700
   176  H          0.02496100       0.80155600       0.02918300
   177  C          0.85085100       0.64695850       0.54597300
   178  C          0.14914900       0.14695850       0.95402700
   179  C          0.14914900       0.35304150       0.45402700
   180  C          0.85085100       0.85304150       0.04597300
   181  C          0.72394100       0.65567830       0.53230300
   182  C          0.27605900       0.15567830       0.96769700
   183  C          0.27605900       0.34432170       0.46769700
   184  C          0.72394100       0.84432170       0.03230300
   185  H          0.66487600       0.61738300       0.55111500
   186  H          0.33512400       0.11738300       0.94888500
   187  H          0.33512400       0.38261700       0.44888500
   188  H          0.66487600       0.88261700       0.05111500
   189  C         -0.00026100       0.83988860       0.44667300
   190  C          0.00026100       0.33988860       0.05332700
   191  C          0.00026100       0.16011140       0.55332700
   192  C         -0.00026100       0.66011140       0.94667300
   193  H          0.01091500       0.95870000       0.39246000
   194  H         -0.01091500       0.45870000       0.10754000
   195  H         -0.01091500       0.04130000       0.60754000
   196  H          0.01091500       0.54130000       0.89246000
