data_HOWMIQ
_symmetry_space_group_name_H-M    'P1'
_symmetry_Int_Tables_number       1
loop_
_symmetry_equiv_pos_site_id
_symmetry_equiv_pos_as_xyz
1 x,y,z
_cell_length_a                   11.39725
_cell_length_b                   10.13294
_cell_length_c                   13.81515
_cell_angle_alpha                90.0
_cell_angle_beta                 107.9761
_cell_angle_gamma                90.0
loop_
_atom_site_label
_atom_site_type_symbol
_atom_site_fract_x
_atom_site_fract_y
_atom_site_fract_z
     1  Br         0.24874500       0.38084900       0.48817400
     2  Br         0.75125500       0.88084900       0.51182600
     3  O          0.51146000       0.37508000       0.43554000
     4  O          0.48854000       0.87508000       0.56446000
     5  N          0.77666000       0.41664000       0.45803000
     6  N          0.22334000       0.91664000       0.54197000
     7  C          0.88405000       0.45507000       0.42324000
     8  C          0.11595000       0.95507000       0.57676000
     9  H          0.95130000       0.39010000       0.44990000
    10  H          0.04870000       0.89010000       0.55010000
    11  H          0.91490000       0.54220000       0.45240000
    12  H          0.08510000       0.04220000       0.54760000
    13  C          0.85325000       0.46196000       0.30884000
    14  C          0.14675000       0.96196000       0.69116000
    15  C          0.95105000       0.45358000       0.26814000
    16  C          0.04895000       0.95358000       0.73186000
    17  H          0.03230000       0.43440000       0.31060000
    18  H          0.96770000       0.93440000       0.68940000
    19  C          0.92754000       0.47368000       0.16385000
    20  C          0.07246000       0.97368000       0.83615000
    21  H         -0.00680000       0.46920000       0.13500000
    22  H          0.00680000       0.96920000       0.86500000
    23  C          0.80984000       0.49958000       0.10274000
    24  C          0.19016000      -0.00042000       0.89726000
    25  H          0.79490000       0.51540000       0.03210000
    26  H          0.20510000       0.01540000       0.96790000
    27  C          0.71354000       0.50267000       0.14294000
    28  C          0.28646000       0.00267000       0.85706000
    29  H          0.63220000       0.51810000       0.09940000
    30  H          0.36780000       0.01810000       0.90060000
    31  C          0.73415000       0.48346000       0.24664000
    32  C          0.26585000       0.98346000       0.75336000
    33  C          0.62985000       0.48606000       0.29094000
    34  C          0.37015000       0.98606000       0.70906000
    35  H          0.58440000       0.40150000       0.27480000
    36  H          0.41560000       0.90150000       0.72520000
    37  H          0.57230000       0.55750000       0.25770000
    38  H          0.42770000       0.05750000       0.74230000
    39  C          0.66965000       0.50716000       0.40614000
    40  C          0.33035000       0.00716000       0.59386000
    41  H          0.70280000       0.59900000       0.41810000
    42  H          0.29720000       0.09900000       0.58190000
    43  C          0.56274000       0.50228000       0.44705000
    44  C          0.43726000       0.00228000       0.55295000
    45  H          0.59060000       0.52660000       0.52000000
    46  H          0.40940000       0.02660000       0.48000000
    47  H          0.49940000       0.56670000       0.41020000
    48  H          0.50060000       0.06670000       0.58980000
    49  C          0.74784000       0.27276000       0.43435000
    50  C          0.25216000       0.77276000       0.56565000
    51  C          0.81225000       0.43507000       0.57464000
    52  C          0.18775000       0.93507000       0.42536000
    53  H          0.82540000       0.53020000       0.59040000
    54  H          0.17460000       0.03020000       0.40960000
    55  H          0.74250000       0.40570000       0.59770000
    56  H          0.25750000       0.90570000       0.40230000
    57  C          0.92485000       0.36177000       0.63283000
    58  C          0.07515000       0.86177000       0.36717000
    59  H          0.91550000       0.26970000       0.64130000
    60  H          0.08450000       0.76970000       0.35870000
    61  C          0.03775000       0.41096000       0.67444000
    62  C          0.96225000       0.91096000       0.32556000
    63  C          0.07307000       0.55107000       0.66655000
    64  C          0.92693000       0.05107000       0.33345000
    65  H          0.13190000       0.55580000       0.62770000
    66  H          0.86810000       0.05580000       0.37230000
    67  H          0.11110000       0.58710000       0.73480000
    68  H          0.88890000       0.08710000       0.26520000
    69  H         -0.00080000       0.60250000       0.63160000
    70  H          0.00080000       0.10250000       0.36840000
    71  C          0.13926000       0.32438000       0.73545000
    72  C          0.86074000       0.82438000       0.26455000
    73  H          0.10780000       0.23450000       0.73670000
    74  H          0.89220000       0.73450000       0.26330000
    75  H          0.17070000       0.35830000       0.80510000
    76  H          0.82930000       0.85830000       0.19490000
    77  H          0.20590000       0.32310000       0.70460000
    78  H          0.79410000       0.82310000       0.29540000
    79  H          0.45630000       0.38490000       0.45750000
    80  H          0.54370000       0.88490000       0.54250000
    81  O          0.46334000       0.29414000       0.69873000
    82  O          0.53666000       0.79414000       0.30127000
    83  O          0.73464000       0.12214000       0.67213000
    84  O          0.26536000       0.62214000       0.32787000
    85  C          0.56604000       0.37126000       0.73183000
    86  C          0.43396000       0.87126000       0.26817000
    87  C          0.56035000       0.50495000       0.70624000
    88  C          0.43965000       0.00495000       0.29376000
    89  H          0.48520000       0.54290000       0.66530000
    90  H          0.51480000       0.04290000       0.33470000
    91  C          0.66476000       0.58085000       0.74094000
    92  C          0.33524000       0.08085000       0.25906000
    93  H          0.66100000       0.67130000       0.72220000
    94  H          0.33900000       0.17130000       0.27780000
    95  C          0.77675000       0.52885000       0.80304000
    96  C          0.22325000       0.02885000       0.19696000
    97  C          0.88606000       0.60576000       0.83985000
    98  C          0.11394000       0.10576000       0.16015000
    99  H          0.88410000       0.69660000       0.82240000
   100  H          0.11590000       0.19660000       0.17760000
   101  C         -0.00664000       0.55117000       0.89975000
   102  C          0.00664000       0.05117000       0.10025000
   103  H          0.06530000       0.60390000       0.92390000
   104  H          0.93470000       0.10390000       0.07610000
   105  C         -0.00265000       0.41736000       0.92564000
   106  C          0.00265000       0.91736000       0.07436000
   107  H          0.07220000       0.37990000       0.96760000
   108  H          0.92780000       0.87990000       0.03240000
   109  C          0.89515000       0.33996000       0.89134000
   110  C          0.10485000       0.83996000       0.10866000
   111  H          0.89990000       0.24910000       0.90920000
   112  H          0.10010000       0.74910000       0.09080000
   113  C          0.78074000       0.39325000       0.82873000
   114  C          0.21926000       0.89325000       0.17127000
   115  C          0.67484000       0.31435000       0.79293000
   116  C          0.32516000       0.81435000       0.20707000
   117  C          0.67744000       0.17125000       0.81834000
   118  C          0.32256000       0.67125000       0.18166000
   119  C          0.65234000       0.12765000       0.90793000
   120  C          0.34766000       0.62765000       0.09207000
   121  C          0.61765000       0.21406000       0.97434000
   122  C          0.38235000       0.71406000       0.02566000
   123  H          0.61150000       0.30580000       0.95970000
   124  H          0.38850000       0.80580000       0.04030000
   125  C          0.59276000       0.16987000       0.05844000
   126  C          0.40724000       0.66987000       0.94156000
   127  H          0.56970000       0.23080000       0.10160000
   128  H          0.43030000       0.73080000       0.89840000
   129  C          0.60066000       0.03427000       0.08284000
   130  C          0.39934000       0.53427000       0.91716000
   131  H          0.58280000       0.00390000       0.14180000
   132  H          0.41720000       0.50390000       0.85820000
   133  C          0.63375000       0.94744000       0.02114000
   134  C          0.36625000       0.44744000       0.97886000
   135  H          0.63960000       0.85620000       0.03770000
   136  H          0.36040000       0.35620000       0.96230000
   137  C          0.65975000      -0.00955000       0.93264000
   138  C          0.34025000       0.49045000       0.06736000
   139  C          0.69375000       0.90245000       0.86734000
   140  C          0.30625000       0.40245000       0.13266000
   141  H          0.69890000       0.81100000       0.88310000
   142  H          0.30110000       0.31100000       0.11690000
   143  C          0.71935000       0.94345000       0.78264000
   144  C          0.28065000       0.44345000       0.21736000
   145  H          0.74300000       0.88190000       0.74030000
   146  H          0.25700000       0.38190000       0.25970000
   147  C          0.71005000       0.08015000       0.75794000
   148  C          0.28995000       0.58015000       0.24206000
   149  H          0.40060000       0.33470000       0.65350000
   150  H          0.59940000       0.83470000       0.34650000
   151  H          0.75190000       0.05510000       0.63580000
   152  H          0.24810000       0.55510000       0.36420000
