data_HOXBOO
_symmetry_space_group_name_H-M    'P1'
_symmetry_Int_Tables_number       1
loop_
_symmetry_equiv_pos_site_id
_symmetry_equiv_pos_as_xyz
1 x,y,z
_cell_length_a                   6.69163
_cell_length_b                   6.82944
_cell_length_c                   9.89394
_cell_angle_alpha                78.0074
_cell_angle_beta                 88.2534
_cell_angle_gamma                65.2295
loop_
_atom_site_label
_atom_site_type_symbol
_atom_site_fract_x
_atom_site_fract_y
_atom_site_fract_z
     1  O          0.23738150       0.68074150       0.89145900
     2  O          0.76261850       0.31925850       0.10854100
     3  H          0.21641700       0.58330000       0.83361500
     4  H          0.78358300       0.41670000       0.16638500
     5  O          0.50564150       0.66929150       0.74919900
     6  O          0.49435850       0.33070850       0.25080100
     7  C          0.45192000       0.86836180       0.92778120
     8  C          0.54808000       0.13163820       0.07221880
     9  C          0.63532000       0.91242000       0.89881120
    10  C          0.36468000       0.08758000       0.10118880
    11  H          0.72834700       0.85258300       0.82946900
    12  H          0.27165300       0.14741700       0.17053100
    13  C          0.68312000       0.04302000       0.97057120
    14  C          0.31688000       0.95698000       0.02942880
    15  H          0.80884200       0.07221500       0.95020000
    16  H          0.19115800       0.92778500       0.04980000
    17  C          0.40192000       0.72892190       0.84706120
    18  C          0.59808000       0.27107810       0.15293880
    19  N          0.17209170       0.43795160       0.74297100
    20  N          0.82790830       0.56204840       0.25702900
    21  C          0.01372000       0.36625190       0.76933120
    22  C          0.98628000       0.63374810       0.23066880
    23  H          0.92475900       0.40451400       0.84470200
    24  H          0.07524100       0.59548600       0.15529800
    25  C          0.97508000       0.23862000       0.69087130
    26  C          0.02492000       0.76138000       0.30912870
    27  H          0.86007900       0.19235000       0.71205400
    28  H          0.13992100       0.80765000       0.28794600
    29  C          0.10462000       0.17802190       0.58093120
    30  C          0.89538000       0.82197810       0.41906880
    31  C          0.26842000       0.25422000       0.55369130
    32  C          0.73158000       0.74578000       0.44630870
    33  H          0.36004000       0.21855600       0.47904100
    34  H          0.63996000       0.78144400       0.52095900
    35  C          0.29602000       0.38232000       0.63668130
    36  C          0.70398000       0.61768000       0.36331870
    37  H          0.40817400       0.43298100       0.61717300
    38  H          0.59182600       0.56701900       0.38282700
    39  C          0.07432000       0.04152000       0.49371120
    40  C          0.92568000       0.95848000       0.50628880
    41  H          0.17097800       0.00926600       0.42098300
    42  H          0.82902200      -0.00926600       0.57901700
