data_HOXJEN
_symmetry_space_group_name_H-M    'P1'
_symmetry_Int_Tables_number       1
loop_
_symmetry_equiv_pos_site_id
_symmetry_equiv_pos_as_xyz
1 x,y,z
_cell_length_a                   7.17502
_cell_length_b                   14.77233
_cell_length_c                   14.86643
_cell_angle_alpha                115.78701
_cell_angle_beta                 94.07201
_cell_angle_gamma                99.85201
loop_
_atom_site_label
_atom_site_type_symbol
_atom_site_fract_x
_atom_site_fract_y
_atom_site_fract_z
     1  Br         0.24615500       0.18915200       0.46394200
     2  Br         0.75384500       0.81084800       0.53605800
     3  F          0.20723000       0.45862130       0.33340110
     4  F          0.79277000       0.54137870       0.66659890
     5  O          0.35223000       0.72492140       0.68013140
     6  O          0.64777000       0.27507860       0.31986860
     7  O          0.93537000       0.30730150       0.63345140
     8  O          0.06463000       0.69269850       0.36654860
     9  N          0.61373000       0.39614160       0.96295150
    10  N          0.38627000       0.60385840       0.03704850
    11  N          0.10463000       0.30649150       0.76774150
    12  N          0.89537000       0.69350850       0.23225850
    13  N          0.23023000       0.61849160       0.51355170
    14  N          0.76977000       0.38150840       0.48644830
    15  N          0.24603000       0.79002170       0.57682190
    16  N          0.75397000       0.20997830       0.42317810
    17  N          0.48684000       0.32542000       0.06106180
    18  N          0.51316000       0.67458000       0.93893820
    19  C          0.27123000       0.33688170       0.83646160
    20  C          0.72877000       0.66311830       0.16353840
    21  C          0.28193000       0.31397180       0.91700180
    22  C          0.71807000       0.68602820       0.08299820
    23  H          0.17333000       0.27881180       0.92856180
    24  H          0.82667000       0.72118820       0.07143820
    25  C          0.43843000       0.39241170       0.82065170
    26  C          0.56157000       0.60758830       0.17934830
    27  C          0.23863000       0.52295190       0.50973180
    28  C          0.76137000       0.47704810       0.49026820
    29  C          0.43093000       0.41473180       0.73617180
    30  C          0.56907000       0.58526820       0.26382820
    31  H          0.54103000       0.45008180       0.72595180
    32  H          0.45897000       0.54991820       0.27404820
    33  C          0.45734000       0.34391190       0.98136180
    34  C          0.54266000       0.65608810       0.01863820
    35  C          0.22464000       0.44022000       0.41517180
    36  C          0.77536000       0.55978000       0.58482820
    37  C          0.25273000       0.50240190       0.59287180
    38  C          0.74727000       0.49759810       0.40712820
    39  H          0.26183000       0.55579190       0.65756180
    40  H          0.73817000       0.44420810       0.34243820
    41  C          0.25363000       0.40368190       0.58095180
    42  C          0.74637000       0.59631810       0.41904820
    43  C          0.28163000       0.71306190       0.59736190
    44  C          0.71837000       0.28693810       0.40263810
    45  C          0.24054000       0.32422000       0.48374190
    46  C          0.75946000       0.67578000       0.51625810
    47  C          0.22554000       0.34232000       0.39959190
    48  C          0.77446000       0.65768000       0.60040810
    49  H          0.21644000       0.28922000       0.33468190
    50  H          0.78356000       0.71078000       0.66531810
    51  C          0.09183000       0.33176190       0.68821180
    52  C          0.90817000       0.66823810       0.31178820
    53  C          0.26683000       0.38528180       0.67152180
    54  C          0.73317000       0.61471820       0.32847820
    55  C          0.60633000       0.42009180       0.88575180
    56  C          0.39367000       0.57990820       0.11424820
    57  H          0.71673000       0.45597180       0.87626180
    58  H          0.28327000       0.54402820       0.12373820
    59  C          0.31264000       0.89762000       0.63882000
    60  C          0.68736000       0.10238000       0.36118000
    61  C          0.93117000       0.23952000       0.77302000
    62  C          0.06883000       0.76048000       0.22698000
    63  H          0.92707000       0.25382000       0.84292000
    64  H          0.07293000       0.74618000       0.15708000
    65  H          0.81747000       0.25422000       0.74782000
    66  H          0.18253000       0.74578000       0.25218000
    67  C          0.44724000       0.10932000       0.74823000
    68  C          0.55276000       0.89068000       0.25177000
    69  H          0.49474000       0.18012000       0.78523000
    70  H          0.50526000       0.81988000       0.21477000
    71  C          0.93326000       0.12712000       0.71053000
    72  C          0.06674000       0.87288000       0.28947000
    73  H          0.94760000       0.11455000       0.64276000
    74  H          0.05240000       0.88545000       0.35724000
    75  H          0.03820000       0.11095000       0.74011100
    76  H          0.96180000       0.88905000       0.25988900
    77  H          0.81468500       0.08462000       0.70911600
    78  H          0.18531500       0.91538000       0.29088400
    79  C          0.35065000       0.94332000       0.74302000
    80  C          0.64935000       0.05668000       0.25698000
    81  H          0.33015000       0.90332000       0.77702000
    82  H          0.66985000       0.09668000       0.22298000
    83  C          0.41955000       0.04873000       0.79673000
    84  C          0.58045000       0.95127000       0.20327000
    85  H          0.44755000       0.07923000       0.86703000
    86  H          0.55245000       0.92077000       0.13297000
    87  C          0.33654000       0.95882000       0.58973000
    88  C          0.66346000       0.04118000       0.41027000
    89  H          0.30714000       0.92912000       0.51953000
    90  H          0.69286000       0.07088000       0.48047000
    91  C          0.34155000       0.27033000       0.09283000
    92  C          0.65845000       0.72967000       0.90717000
    93  H          0.30230000       0.19986000       0.04201000
    94  H          0.69770000       0.80014000       0.95799000
    95  H          0.39271300       0.27291900       0.15551100
    96  H          0.60728700       0.72708100       0.84448900
    97  H          0.23321700       0.30181300       0.10220000
    98  H          0.76678300       0.69818700       0.89780000
    99  C          0.40455000       0.06472000       0.64593000
   100  C          0.59545000       0.93528000       0.35407000
   101  H          0.42105000       0.10562000       0.61283000
   102  H          0.57895000       0.89438000       0.38717000
   103  H          0.20540000       0.77320000       0.51620000
   104  H          0.79460000       0.22680000       0.48380000
   105  H          0.18950000       0.61730000       0.45730000
   106  H          0.81050000       0.38270000       0.54270000
   107  H          0.72240000       0.41020000       0.00020000
   108  H          0.27760000       0.58980000      -0.00020000
   109  H          0.61150000       0.34620000       0.09020000
   110  H          0.38850000       0.65380000       0.90980000
   111  Cl         0.04647900       0.56326600       0.88099600
   112  Cl         0.95352100       0.43673400       0.11900400
   113  O          0.15906000       0.76003000       0.84543000
   114  O          0.84094000       0.23997000       0.15457000
   115  H          0.22370000       0.81430000       0.89730000
   116  H          0.77630000       0.18570000       0.10270000
   117  H          0.23260000       0.73640000       0.80330000
   118  H          0.76740000       0.26360000       0.19670000
   119  O          0.22705000       0.95243000       0.00313000
   120  O          0.77295000       0.04757000      -0.00313000
   121  O          0.06356000       0.86953000       0.07082000
   122  O          0.93644000       0.13047000       0.92918000
   123  C          0.14266000       0.94853000       0.07463000
   124  C          0.85734000       0.05147000       0.92537000
   125  C          0.15297000       0.05363000       0.16293000
   126  C          0.84703000       0.94637000       0.83707000
   127  H          0.28467000       0.08961100       0.18841600
   128  H          0.71533000       0.91038900       0.81158400
   129  H          0.08640000       0.09271000       0.14036000
   130  H          0.91360000       0.90729000       0.85964000
   131  H          0.09540000       0.04473000       0.21561000
   132  H          0.90460000       0.95527000       0.78439000
   133  H          0.29960000       0.01840000       0.00730000
   134  H          0.70040000       0.98160000      -0.00730000
