data_HOYZON
_symmetry_space_group_name_H-M    'P1'
_symmetry_Int_Tables_number       1
loop_
_symmetry_equiv_pos_site_id
_symmetry_equiv_pos_as_xyz
1 x,y,z
_cell_length_a                   5.08084
_cell_length_b                   11.03239
_cell_length_c                   19.542216
_cell_angle_alpha                100.3982
_cell_angle_beta                 93.7052
_cell_angle_gamma                101.2282
loop_
_atom_site_label
_atom_site_type_symbol
_atom_site_fract_x
_atom_site_fract_y
_atom_site_fract_z
     1  N          0.52623000       0.52335140       0.41795800
     2  N          0.47377000       0.47664860       0.58204200
     3  C          0.73463000       0.54138170       0.37760900
     4  C          0.26537000       0.45861830       0.62239100
     5  H          0.85560000       0.62000000       0.38080000
     6  H          0.14440000       0.38000000       0.61920000
     7  C          0.75023000       0.43277160       0.33154900
     8  C          0.24977000       0.56722840       0.66845100
     9  N          0.53793000       0.34384130       0.34598700
    10  N          0.46207000       0.65615870       0.65401300
    11  N          0.46583000       0.22169140       0.31339800
    12  N          0.53417000       0.77830860       0.68660200
    13  C          0.24763000       0.15478170       0.33192900
    14  C          0.75237000       0.84521830       0.66807100
    15  C          0.10083000       0.20481180       0.38643900
    16  C          0.89917000       0.79518820       0.61356100
    17  H          0.94750000       0.15270000       0.39930000
    18  H          0.05250000       0.84730000       0.60070000
    19  C          0.18163000       0.32738180       0.41981900
    20  C          0.81837000       0.67261820       0.58018100
    21  H          0.08850000       0.36160000       0.45680000
    22  H          0.91150000       0.63840000       0.54320000
    23  C          0.40553000       0.40197170       0.39837900
    24  C          0.59447000       0.59802830       0.60162100
    25  C          0.92833000       0.41120160       0.27642900
    26  C          0.07167000       0.58879840       0.72357100
    27  C          0.90924000       0.29423170       0.23237900
    28  C          0.09076000       0.70576830       0.76762100
    29  H          0.78240000       0.22310000       0.23940000
    30  H          0.21760000       0.77690000       0.76060000
    31  C          0.07294000       0.28058170       0.17861900
    32  C          0.92706000       0.71941830       0.82138100
    33  H          0.05690000       0.20080000       0.14870000
    34  H          0.94310000       0.79920000       0.85130000
    35  C          0.25973000       0.38362160       0.16862900
    36  C          0.74027000       0.61637840       0.83137100
    37  C          0.28653000       0.50092170       0.21259900
    38  C          0.71347000       0.49907830       0.78740100
    39  H          0.41560000       0.57130000       0.20570000
    40  H          0.58440000       0.42870000       0.79430000
    41  C          0.12403000       0.51394170       0.26619900
    42  C          0.87597000       0.48605830       0.73380100
    43  H          0.14440000       0.59340000       0.29670000
    44  H          0.85560000       0.40660000       0.70330000
    45  S          0.44414800       0.36754400       0.09493200
    46  S          0.55585200       0.63245600       0.90506800
    47  O          0.46053000       0.23654120       0.07590700
    48  O          0.53947000       0.76345880       0.92409300
    49  O          0.69102000       0.46202130       0.10935700
    50  O          0.30898000       0.53797870       0.89064300
    51  C          0.23284000       0.40318180       0.02974900
    52  C          0.76716000       0.59681820       0.97025100
    53  H          0.22140000       0.49200000       0.04190000
    54  H          0.77860000       0.50800000       0.95810000
    55  H          0.05220000       0.34980000       0.02630000
    56  H          0.94780000       0.65020000       0.97370000
    57  H          0.30720000       0.38750000       0.98470000
    58  H          0.69280000       0.61250000       0.01530000
    59  C          0.16483000       0.02486170       0.28891900
    60  C          0.83517000       0.97513830       0.71108100
    61  C          0.27923000      -0.00247170       0.22631900
    62  C          0.72077000       0.00247170       0.77368100
    63  H          0.40770000       0.06100000       0.21250000
    64  H          0.59230000       0.93900000       0.78750000
    65  C          0.20673000       0.87870830       0.18443900
    66  C          0.79327000       0.12129170       0.81556100
    67  C          0.01554000       0.78399820       0.20222100
    68  C         -0.01554000       0.21600180       0.79777900
    69  H         -0.03580000       0.70300000       0.17270000
    70  H          0.03580000       0.29700000       0.82730000
    71  C          0.90206000       0.81158810       0.26449110
    72  C          0.09794000       0.18841190       0.73550890
    73  H          0.77190000       0.74820000       0.27780000
    74  H          0.22810000       0.25180000       0.72220000
    75  C         -0.02464000       0.93009820       0.30768100
    76  C          0.02464000       0.06990180       0.69231900
    77  H          0.89610000       0.94660000       0.35020000
    78  H          0.10390000       0.05340000       0.64980000
    79  S          0.36594900       0.85110600       0.10637200
    80  S          0.63405100       0.14889400       0.89362800
    81  O          0.63603000       0.92660860       0.11925800
    82  O          0.36397000       0.07339140       0.88074200
    83  O          0.32813000       0.71631870       0.08405800
    84  O          0.67187000       0.28368130       0.91594200
    85  C          0.18704000       0.91176820       0.04500100
    86  C          0.81296000       0.08823180       0.95499900
    87  H          0.21470000       0.00350000       0.05980000
    88  H          0.78530000      -0.00350000       0.94020000
    89  H         -0.00570000       0.87410000       0.04200000
    90  H          0.00570000       0.12590000       0.95800000
    91  H          0.25240000       0.89150000      -0.00090000
    92  H          0.74760000       0.10850000       0.00090000
    93  C          0.41544000       0.94409170       0.49175100
    94  C          0.58456000       0.05590830       0.50824900
    95  H          0.22870000       0.93900000       0.49620000
    96  H          0.77130000       0.06100000       0.50380000
    97  C          0.51304000       0.82712180       0.46647100
    98  C          0.48696000       0.17287820       0.53352900
    99  O          0.73223000       0.82735130       0.44422800
   100  O          0.26777000       0.17264870       0.55577200
   101  O          0.33903000       0.72400120       0.47237800
   102  O          0.66097000       0.27599880       0.52762200
   103  H          0.40180000       0.66020000       0.45760000
   104  H          0.59820000       0.33980000       0.54240000
