data_HOZCAE
_symmetry_space_group_name_H-M    'P1'
_symmetry_Int_Tables_number       1
loop_
_symmetry_equiv_pos_site_id
_symmetry_equiv_pos_as_xyz
1 x,y,z
_cell_length_a                   19.2624
_cell_length_b                   19.3204
_cell_length_c                   8.021215
_cell_angle_alpha                90.0
_cell_angle_beta                 97.1573
_cell_angle_gamma                90.0
loop_
_atom_site_label
_atom_site_type_symbol
_atom_site_fract_x
_atom_site_fract_y
_atom_site_fract_z
     1  C          0.40388180       0.59108190       0.45044000
     2  C          0.59611820       0.09108190       0.04956000
     3  C          0.59611820       0.40891810       0.54956000
     4  C          0.40388180       0.90891810       0.95044000
     5  H          0.40437200       0.54461900       0.40472200
     6  H          0.59562800       0.04461900       0.09527800
     7  H          0.59562800       0.45538100       0.59527800
     8  H          0.40437200       0.95538100       0.90472200
     9  H          0.36211700       0.59611900       0.50552100
    10  H          0.63788300       0.09611900      -0.00552100
    11  H          0.63788300       0.40388100       0.49447900
    12  H          0.36211700       0.90388100       0.00552100
    13  C          0.46782000       0.60212000       0.57565000
    14  C          0.53218000       0.10212000       0.92435000
    15  C          0.53218000       0.39788000       0.42435000
    16  C          0.46782000       0.89788000       0.07565000
    17  C          0.57012000       0.71402000       0.76534000
    18  C          0.42988000       0.21402000       0.73466000
    19  C          0.42988000       0.28598000       0.23466000
    20  C          0.57012000       0.78598000       0.26534000
    21  C          0.63740170       0.72367180       0.88194000
    22  C          0.36259830       0.22367180       0.61806000
    23  C          0.36259830       0.27632820       0.11806000
    24  C          0.63740170       0.77632820       0.38194000
    25  H          0.65450300       0.77044400       0.87062900
    26  H          0.34549700       0.27044400       0.62937100
    27  H          0.34549700       0.22955600       0.12937100
    28  H          0.65450300       0.72955600       0.37062900
    29  H          0.62835400       0.71737300      -0.00275100
    30  H          0.37164600       0.21737300       0.50275100
    31  H          0.37164600       0.28262700       0.00275100
    32  H          0.62835400       0.78262700       0.49724900
    33  C          0.34525190       0.64070190       0.19844000
    34  C          0.65474810       0.14070190       0.30156000
    35  C          0.65474810       0.35929810       0.80156000
    36  C          0.34525190       0.85929810       0.69844000
    37  C          0.28799190       0.59873180       0.19804000
    38  C          0.71200810       0.09873180       0.30196000
    39  C          0.71200810       0.40126820       0.80196000
    40  C          0.28799190       0.90126820       0.69804000
    41  H          0.28588100       0.56686200       0.28415900
    42  H          0.71411900       0.06686200       0.21584100
    43  H          0.71411900       0.43313800       0.71584100
    44  H          0.28588100       0.93313800       0.78415900
    45  C          0.23293180       0.60379190       0.06874000
    46  C          0.76706820       0.10379190       0.43126000
    47  C          0.76706820       0.39620810       0.93126000
    48  C          0.23293180       0.89620810       0.56874000
    49  H          0.19409600       0.57537300       0.07106400
    50  H          0.80590400       0.07537300       0.42893600
    51  H          0.80590400       0.42462700       0.92893600
    52  H          0.19409600       0.92462700       0.57106400
    53  C          0.23412000       0.64972000       0.93636000
    54  C          0.76588000       0.14972000       0.56364000
    55  C          0.76588000       0.35028000       0.06364000
    56  C          0.23412000       0.85028000       0.43636000
    57  C          0.29292000       0.69141190       0.94145000
    58  C          0.70708000       0.19141190       0.55855000
    59  C          0.70708000       0.30858810       0.05855000
    60  C          0.29292000       0.80858810       0.44145000
    61  H          0.29523200       0.72336200       0.85568600
    62  H          0.70476800       0.22336200       0.64431400
    63  H          0.70476800       0.27663800       0.14431400
    64  H          0.29523200       0.77663800       0.35568600
    65  C          0.34807190       0.68745190       0.06864000
    66  C          0.65192810       0.18745190       0.43136000
    67  C          0.65192810       0.31254810       0.93136000
    68  C          0.34807190       0.81254810       0.56864000
    69  H          0.38687300       0.71597600       0.06702200
    70  H          0.61312700       0.21597600       0.43297800
    71  H          0.61312700       0.28402400       0.93297800
    72  H          0.38687300       0.78402400       0.56702200
    73  C          0.17402000       0.65452000       0.79145000
    74  C          0.82598000       0.15452000       0.70855000
    75  C          0.82598000       0.34548000       0.20855000
    76  C          0.17402000       0.84548000       0.29145000
    77  C          0.11323000       0.61043000       0.82173000
    78  C          0.88677000       0.11043000       0.67827000
    79  C          0.88677000       0.38957000       0.17827000
    80  C          0.11323000       0.88957000       0.32173000
    81  H          0.12809600       0.56311400       0.83621000
    82  H          0.87190400       0.06311400       0.66379000
    83  H          0.87190400       0.43688600       0.16379000
    84  H          0.12809600       0.93688600       0.33621000
    85  H          0.09486800       0.62595400       0.92124100
    86  H          0.90513200       0.12595400       0.57875900
    87  H          0.90513200       0.37404600       0.07875900
    88  H          0.09486800       0.87404600       0.42124100
    89  H          0.07744600       0.61370700       0.72733900
    90  H          0.92255400       0.11370700       0.77266100
    91  H          0.92255400       0.38629300       0.27266100
    92  H          0.07744600       0.88629300       0.22733900
    93  C          0.20103000       0.63283000       0.62655000
    94  C          0.79897000       0.13283000       0.87345000
    95  C          0.79897000       0.36717000       0.37345000
    96  C          0.20103000       0.86717000       0.12655000
    97  H          0.24012300       0.66137600       0.60795000
    98  H          0.75987700       0.16137600       0.89205000
    99  H          0.75987700       0.33862400       0.39205000
   100  H          0.24012300       0.83862400       0.10795000
   101  H          0.21549200       0.58523500       0.63404000
   102  H          0.78450800       0.08523500       0.86596000
   103  H          0.78450800       0.41476500       0.36596000
   104  H          0.21549200       0.91476500       0.13404000
   105  H          0.16439300       0.63829100       0.53483100
   106  H          0.83560700       0.13829100       0.96516900
   107  H          0.83560700       0.36170900       0.46516900
   108  H          0.16439300       0.86170900       0.03483100
   109  C          0.15042000       0.72942000       0.76855000
   110  C          0.84958000       0.22942000       0.73145000
   111  C          0.84958000       0.27058000       0.23145000
   112  C          0.15042000       0.77058000       0.26855000
   113  H          0.18949800       0.75773300       0.74911300
   114  H          0.81050200       0.25773300       0.75088700
   115  H          0.81050200       0.24226700       0.25088700
   116  H          0.18949800       0.74226700       0.24911300
   117  H          0.11464800       0.73272900       0.67415200
   118  H          0.88535200       0.23272900       0.82584800
   119  H          0.88535200       0.26727100       0.32584800
   120  H          0.11464800       0.76727100       0.17415200
   121  H          0.13207000       0.74497600       0.86805500
   122  H          0.86793000       0.24497600       0.63194500
   123  H          0.86793000       0.25502400       0.13194500
   124  H          0.13207000       0.75502400       0.36805500
   125  C          0.74832190       0.66942000       0.96084000
   126  C          0.25167810       0.16942000       0.53916000
   127  C          0.25167810       0.33058000       0.03916000
   128  C          0.74832190       0.83058000       0.46084000
   129  C          0.79252000       0.61732000       0.93545000
   130  C          0.20748000       0.11732000       0.56455000
   131  C          0.20748000       0.38268000       0.06455000
   132  C          0.79252000       0.88268000       0.43545000
   133  H          0.78209700       0.58814200       0.84345100
   134  H          0.21790300       0.08814200       0.65654900
   135  H          0.21790300       0.41185800       0.15654900
   136  H          0.78209700       0.91185800       0.34345100
   137  C          0.85322000       0.60672000       0.04536000
   138  C          0.14678000       0.10672000       0.45464000
   139  C          0.14678000       0.39328000       0.95464000
   140  C          0.85322000       0.89328000       0.54536000
   141  H          0.88330700       0.57091400       0.02496600
   142  H          0.11669300       0.07091400       0.47503400
   143  H          0.11669300       0.42908600       0.97503400
   144  H          0.88330700       0.92908600       0.52496600
   145  C          0.86962000       0.64832000       0.18345000
   146  C          0.13038000       0.14832000       0.31655000
   147  C          0.13038000       0.35168000       0.81655000
   148  C          0.86962000       0.85168000       0.68345000
   149  C          0.82522000       0.70032000       0.20435000
   150  C          0.17478000       0.20032000       0.29565000
   151  C          0.17478000       0.29968000       0.79565000
   152  C          0.82522000       0.79968000       0.70435000
   153  H          0.83578500       0.72973000       0.29575600
   154  H          0.16421500       0.22973000       0.20424400
   155  H          0.16421500       0.27027000       0.70424400
   156  H          0.83578500       0.77027000       0.79575600
   157  C          0.76403190       0.71252000       0.09575000
   158  C          0.23596810       0.21252000       0.40425000
   159  C          0.23596810       0.28748000       0.90425000
   160  C          0.76403190       0.78748000       0.59575000
   161  H          0.73459700       0.74910000       0.11449500
   162  H          0.26540300       0.24910000       0.38550500
   163  H          0.26540300       0.25090000       0.88550500
   164  H          0.73459700       0.75090000       0.61449500
   165  C          0.93532000       0.63453000       0.30986000
   166  C          0.06468000       0.13453000       0.19014000
   167  C          0.06468000       0.36547000       0.69014000
   168  C          0.93532000       0.86547000       0.80986000
   169  C          0.98873000       0.59365000       0.23819000
   170  C          0.01127000       0.09365000       0.26181000
   171  C          0.01127000       0.40635000       0.76181000
   172  C          0.98873000       0.90635000       0.73819000
   173  H          0.00281600       0.61759800       0.14303200
   174  H         -0.00281600       0.11759800       0.35696800
   175  H         -0.00281600       0.38240200       0.85696800
   176  H          0.00281600       0.88240200       0.64303200
   177  H          0.02851000       0.58732500       0.32140100
   178  H          0.97149000       0.08732500       0.17859900
   179  H          0.97149000       0.41267500       0.67859900
   180  H          0.02851000       0.91267500       0.82140100
   181  H          0.96965000       0.54930700       0.20308000
   182  H          0.03035000       0.04930700       0.29692000
   183  H          0.03035000       0.45069300       0.79692000
   184  H          0.96965000       0.95069300       0.70308000
   185  C          0.96843000       0.70193000       0.37097000
   186  C          0.03157000       0.20193000       0.12903000
   187  C          0.03157000       0.29807000       0.62903000
   188  C          0.96843000       0.79807000       0.87097000
   189  H          0.93452800       0.72967900       0.41850600
   190  H          0.06547200       0.22967900       0.08149400
   191  H          0.06547200       0.27032100       0.58149400
   192  H          0.93452800       0.77032100       0.91850600
   193  H          0.00735800       0.69283900       0.45481600
   194  H         -0.00735800       0.19283900       0.04518400
   195  H         -0.00735800       0.30716100       0.54518400
   196  H          0.00735800       0.80716100       0.95481600
   197  H          0.98431900       0.72610700       0.27832700
   198  H          0.01568100       0.22610700       0.22167300
   199  H          0.01568100       0.27389300       0.72167300
   200  H          0.98431900       0.77389300       0.77832700
   201  C          0.91363000       0.59704000       0.45747000
   202  C          0.08637000       0.09704000       0.04253000
   203  C          0.08637000       0.40296000       0.54253000
   204  C          0.91363000       0.90296000       0.95747000
   205  H          0.87872400       0.62352700       0.50466100
   206  H          0.12127600       0.12352700      -0.00466100
   207  H          0.12127600       0.37647300       0.49533900
   208  H          0.87872400       0.87647300       0.00466100
   209  H          0.89465000       0.55265100       0.42216900
   210  H          0.10535000       0.05265100       0.07783100
   211  H          0.10535000       0.44734900       0.57783100
   212  H          0.89465000       0.94734900       0.92216900
   213  H          0.95351000       0.59067000       0.54049100
   214  H          0.04649000       0.09067000       0.95950900
   215  H          0.04649000       0.40933000       0.45950900
   216  H          0.95351000       0.90933000       0.04049100
   217  N          0.51197150       0.65009160       0.54063000
   218  N          0.48802850       0.15009160       0.95937000
   219  N          0.48802850       0.34990840       0.45937000
   220  N          0.51197150       0.84990840       0.04063000
   221  H          0.50381900       0.67322400       0.44860400
   222  H          0.49618100       0.17322400       0.05139600
   223  H          0.49618100       0.32677600       0.55139600
   224  H          0.50381900       0.82677600       0.94860400
   225  N          0.57173140       0.66371140       0.65093000
   226  N          0.42826860       0.16371140       0.84907000
   227  N          0.42826860       0.33628860       0.34907000
   228  N          0.57173140       0.83628860       0.15093000
   229  H          0.60932200       0.64019300       0.64587500
   230  H          0.39067800       0.14019300       0.85412500
   231  H          0.39067800       0.35980700       0.35412500
   232  H          0.60932200       0.85980700       0.14587500
   233  O          0.40295120       0.64024120       0.31873000
   234  O          0.59704880       0.14024120       0.18127000
   235  O          0.59704880       0.35975880       0.68127000
   236  O          0.40295120       0.85975880       0.81873000
   237  O          0.47526130       0.56601130       0.70483000
   238  O          0.52473870       0.06601130       0.79517000
   239  O          0.52473870       0.43398870       0.29517000
   240  O          0.47526130       0.93398870       0.20483000
   241  O          0.51915120       0.74980130       0.77703000
   242  O          0.48084880       0.24980130       0.72297000
   243  O          0.48084880       0.25019870       0.22297000
   244  O          0.51915120       0.75019870       0.27703000
   245  O          0.68877120       0.67611120       0.84513000
   246  O          0.31122880       0.17611120       0.65487000
   247  O          0.31122880       0.32388880       0.15487000
   248  O          0.68877120       0.82388880       0.34513000
   249  C          0.65752000       0.56405180       0.31614000
   250  C          0.34248000       0.06405180       0.18386000
   251  C          0.34248000       0.43594820       0.68386000
   252  C          0.65752000       0.93594820       0.81614000
   253  C          0.57242000       0.58471170       0.10644000
   254  C          0.42758000       0.08471170       0.39356000
   255  C          0.42758000       0.41528830       0.89356000
   256  C          0.57242000       0.91528830       0.60644000
   257  N          0.60112160       0.60092150       0.25833000
   258  N          0.39887840       0.10092150       0.24167000
   259  N          0.39887840       0.39907850       0.74167000
   260  N          0.60112160       0.89907850       0.75833000
   261  N          0.51433150       0.61700160       0.03873000
   262  N          0.48566850       0.11700160       0.46127000
   263  N          0.48566850       0.38299840       0.96127000
   264  N          0.51433150       0.88299840       0.53873000
   265  H          0.49572300       0.64844700       0.09470800
   266  H          0.50427700       0.14844700       0.40529200
   267  H          0.50427700       0.35155300       0.90529200
   268  H          0.49572300       0.85155300       0.59470800
   269  H          0.49554700       0.60634100       0.93909200
   270  H          0.50445300       0.10634100       0.56090800
   271  H          0.50445300       0.39365900       0.06090800
   272  H          0.49554700       0.89365900       0.43909200
   273  S          0.70326600       0.57127600       0.50483120
   274  S          0.29673400       0.07127600      -0.00483120
   275  S          0.29673400       0.42872400       0.49516880
   276  S          0.70326600       0.92872400       0.00483120
   277  S          0.68557600       0.50257600       0.18069120
   278  S          0.31442400       0.00257600       0.31930880
   279  S          0.31442400       0.49742400       0.81930880
   280  S          0.68557600      -0.00257600       0.68069120
   281  S          0.60802600       0.52224500      -0.01240880
   282  S          0.39197400       0.02224500       0.51240880
   283  S          0.39197400       0.47775500       0.01240880
   284  S          0.60802600       0.97775500       0.48759120
