data_HOZPAP
_symmetry_space_group_name_H-M    'P1'
_symmetry_Int_Tables_number       1
loop_
_symmetry_equiv_pos_site_id
_symmetry_equiv_pos_as_xyz
1 x,y,z
_cell_length_a                   12.0162
_cell_length_b                   10.673814
_cell_length_c                   4.46345
_cell_angle_alpha                90.0
_cell_angle_beta                 90.0
_cell_angle_gamma                90.0
loop_
_atom_site_label
_atom_site_type_symbol
_atom_site_fract_x
_atom_site_fract_y
_atom_site_fract_z
     1  Br         0.63235300       0.98123500       0.96126000
     2  Br         0.86764700       0.01876500       0.46126000
     3  Br         0.36764700       0.98123500       0.96126000
     4  Br         0.13235300       0.01876500       0.46126000
     5  C          0.50000000       0.93399000       0.75020000
     6  C         -0.00000000       0.06601000       0.25020000
     7  H          0.50000000       0.97350000       0.55400000
     8  H         -0.00000000       0.02650000       0.05400000
     9  H          0.50000000       0.84390000       0.71980000
    10  H         -0.00000000       0.15610000       0.21980000
    11  O          0.50000000       0.65964000       0.44820000
    12  O         -0.00000000       0.34036000       0.94820000
    13  O          0.59543000       0.47243000       0.46030000
    14  O          0.90457000       0.52757000       0.96030000
    15  O          0.40457000       0.47243000       0.46030000
    16  O          0.09543000       0.52757000       0.96030000
    17  C          0.59675000       0.59666000       0.35051400
    18  C          0.90325000       0.40334000       0.85051400
    19  C          0.40325000       0.59666000       0.35051400
    20  C          0.09675000       0.40334000       0.85051400
    21  C          0.50000000       0.40917000       0.35920000
    22  C         -0.00000000       0.59083000       0.85920000
    23  H          0.50000000       0.40550000       0.13990000
    24  H         -0.00000000       0.59450000       0.63990000
    25  C          0.50000000       0.27756000       0.48640000
    26  C         -0.00000000       0.72244000      -0.01360000
    27  C          0.69793000       0.66284000       0.46920000
    28  C          0.80207000       0.33716000      -0.03080000
    29  C          0.30207000       0.66284000       0.46920000
    30  C          0.19793000       0.33716000      -0.03080000
    31  H          0.69420000       0.66670000       0.68320000
    32  H          0.80580000       0.33330000       0.18320000
    33  H          0.30580000       0.66670000       0.68320000
    34  H          0.19420000       0.33330000       0.18320000
    35  H          0.70060000       0.74620000       0.38840000
    36  H          0.79940000       0.25380000       0.88840000
    37  H          0.29940000       0.74620000       0.38840000
    38  H          0.20060000       0.25380000       0.88840000
    39  H          0.76350000       0.61780000       0.40950000
    40  H          0.73650000       0.38220000       0.90950000
    41  H          0.23650000       0.61780000       0.40950000
    42  H          0.26350000       0.38220000       0.90950000
    43  H          0.59540000       0.59650000       0.14613000
    44  H          0.90460000       0.40350000       0.64613000
    45  H          0.40460000       0.59650000       0.14613000
    46  H          0.09540000       0.40350000       0.64613000
    47  H          0.56550000       0.23280000       0.42240000
    48  H          0.93450000       0.76720000       0.92240000
    49  H          0.43450000       0.23280000       0.42240000
    50  H          0.06550000       0.76720000       0.92240000
    51  H          0.50000000       0.28040000       0.70300000
    52  H         -0.00000000       0.71960000       0.20300000
