data_HUCTUW
_symmetry_space_group_name_H-M    'P1'
_symmetry_Int_Tables_number       1
loop_
_symmetry_equiv_pos_site_id
_symmetry_equiv_pos_as_xyz
1 x,y,z
_cell_length_a                   4.64732
_cell_length_b                   15.11407
_cell_length_c                   10.95325
_cell_angle_alpha                90.0
_cell_angle_beta                 101.77801
_cell_angle_gamma                90.0
loop_
_atom_site_label
_atom_site_type_symbol
_atom_site_fract_x
_atom_site_fract_y
_atom_site_fract_z
     1  S          0.66765600       0.21472200       0.14769300
     2  S          0.83234400       0.71472200       0.35230700
     3  S          0.33234400       0.78527800       0.85230700
     4  S          0.16765600       0.28527800       0.64769300
     5  O          0.47822000       0.28722600       0.07588900
     6  O          0.02178000       0.78722600       0.42411100
     7  O          0.52178000       0.71277400       0.92411100
     8  O         -0.02178000       0.21277400       0.57588900
     9  C          0.57013000       0.21278800       0.29646120
    10  C          0.92987000       0.71278800       0.20353880
    11  C          0.42987000       0.78721200       0.70353880
    12  C          0.07013000       0.28721200       0.79646120
    13  H          0.64480000       0.26620000       0.34300000
    14  H          0.85520000       0.76620000       0.15700000
    15  H          0.35520000       0.73380000       0.65700000
    16  H          0.14480000       0.23380000       0.84300000
    17  H          0.65620000       0.16040000       0.34270000
    18  H          0.84380000       0.66040000       0.15730000
    19  H          0.34380000       0.83960000       0.65730000
    20  H          0.15620000       0.33960000       0.84270000
    21  H          0.35570000       0.21060000       0.28570000
    22  H          0.14430000       0.71060000       0.21430000
    23  H          0.64430000       0.78940000       0.71430000
    24  H          0.85570000       0.28940000       0.78570000
    25  C          0.50023000       0.11327900       0.08818130
    26  C         -0.00023000       0.61327900       0.41181870
    27  C          0.49977000       0.88672100       0.91181870
    28  C          0.00023000       0.38672100       0.58818130
    29  H          0.29350000       0.11320000       0.09550000
    30  H          0.20650000       0.61320000       0.40450000
    31  H          0.70650000       0.88680000       0.90450000
    32  H          0.79350000       0.38680000       0.59550000
    33  H          0.60280000       0.06370000       0.13600000
    34  H          0.89720000       0.56370000       0.36400000
    35  H          0.39720000       0.93630000       0.86400000
    36  H          0.10280000       0.43630000       0.63600000
    37  H          0.51210000       0.10710000       0.00030000
    38  H         -0.01210000       0.60710000       0.49970000
    39  H          0.48790000       0.89290000      -0.00030000
    40  H          0.01210000       0.39290000       0.50030000
    41  O          0.06702000       0.37571600       0.26988800
    42  O          0.43298000       0.87571600       0.23011200
    43  O          0.93298000       0.62428400       0.73011200
    44  O          0.56702000       0.12428400       0.76988800
    45  O          0.47072000       0.44826600       0.34155900
    46  O          0.02928000       0.94826600       0.15844100
    47  O          0.52928000       0.55173400       0.65844100
    48  O         -0.02928000       0.05173400       0.84155900
    49  N          0.25382000       0.43184700       0.26067900
    50  N          0.24618000       0.93184700       0.23932100
    51  N          0.74618000       0.56815300       0.73932100
    52  N          0.75382000       0.06815300       0.76067900
    53  N          0.37432000       0.54828600       0.12926900
    54  N          0.12568000       0.04828600       0.37073100
    55  N          0.62568000       0.45171400       0.87073100
    56  N          0.87432000       0.95171400       0.62926900
    57  N          0.26372000       0.57992600       0.01414900
    58  N          0.23628000       0.07992600       0.48585100
    59  N          0.73628000       0.42007400       0.98585100
    60  N          0.76372000       0.92007400       0.51414900
    61  H          0.33670000       0.62500000       0.97970000
    62  H          0.16330000       0.12500000       0.52030000
    63  H          0.66330000       0.37500000       0.02030000
    64  H          0.83670000       0.87500000       0.47970000
    65  C          0.20242000       0.48062800       0.14623100
    66  C          0.29758000       0.98062800       0.35376900
    67  C          0.79758000       0.51937200       0.85376900
    68  C          0.70242000       0.01937200       0.64623100
    69  C          0.02402000       0.53257700       0.95875900
    70  C          0.47598000       0.03257700       0.54124100
    71  C         -0.02402000       0.46742300       0.04124100
    72  C          0.52402000       0.96742300       0.45875900
