data_HUFCET
_symmetry_space_group_name_H-M    'P1'
_symmetry_Int_Tables_number       1
loop_
_symmetry_equiv_pos_site_id
_symmetry_equiv_pos_as_xyz
1 x,y,z
_cell_length_a                   8.4324
_cell_length_b                   21.1768
_cell_length_c                   9.9284
_cell_angle_alpha                90.0
_cell_angle_beta                 111.17113
_cell_angle_gamma                90.0
loop_
_atom_site_label
_atom_site_type_symbol
_atom_site_fract_x
_atom_site_fract_y
_atom_site_fract_z
     1  I          0.06002000       0.97737700       0.13666170
     2  I          0.43998000       0.47737700       0.36333830
     3  I          0.93998000       0.02262300       0.86333830
     4  I          0.56002000       0.52262300       0.63666170
     5  P          0.84598000       0.12623000       0.50486000
     6  P          0.65402000       0.62623000      -0.00486000
     7  P          0.15402000       0.87377000       0.49514000
     8  P          0.34598000       0.37377000       0.00486000
     9  C          0.58040000       0.09971600       0.01730000
    10  C          0.91960000       0.59971600       0.48270000
    11  C          0.41960000       0.90028400       0.98270000
    12  C          0.08040000       0.40028400       0.51730000
    13  H          0.52710000       0.09310000       0.91850000
    14  H          0.97290000       0.59310000       0.58150000
    15  H          0.47290000       0.90690000       0.08150000
    16  H          0.02710000       0.40690000       0.41850000
    17  C          0.51740000       0.07361400       0.11030000
    18  C         -0.01740000       0.57361400       0.38970000
    19  C          0.48260000       0.92638600       0.88970000
    20  C          0.01740000       0.42638600       0.61030000
    21  H          0.41790000       0.04970000       0.07580000
    22  H          0.08210000       0.54970000       0.42420000
    23  H          0.58210000       0.95030000       0.92420000
    24  H          0.91790000       0.45030000       0.57580000
    25  C          0.60030000       0.08201300       0.26030000
    26  C          0.89970000       0.58201300       0.23970000
    27  C          0.39970000       0.91798700       0.73970000
    28  C          0.10030000       0.41798700       0.76030000
    29  H          0.55720000       0.06210000       0.32370000
    30  H          0.94280000       0.56210000       0.17630000
    31  H          0.44280000       0.93790000       0.67630000
    32  H          0.05720000       0.43790000       0.82370000
    33  C          0.74330000       0.11951000       0.31420000
    34  C          0.75670000       0.61951000       0.18580000
    35  C          0.25670000       0.88049000       0.68580000
    36  C          0.24330000       0.38049000       0.81420000
    37  C          0.79230000       0.20211000       0.55730000
    38  C          0.70770000       0.70211000       0.94270000
    39  C          0.20770000       0.79789000       0.44270000
    40  C          0.29230000       0.29789000       0.05730000
    41  C          0.81140000       0.21081100       0.69830000
    42  C          0.68860000       0.71081100       0.80170000
    43  C          0.18860000       0.78918900       0.30170000
    44  C          0.31140000       0.28918900       0.19830000
    45  H          0.85030000       0.17820000       0.76460000
    46  H          0.64970000       0.67820000       0.73540000
    47  H          0.14970000       0.82180000       0.23540000
    48  H          0.35030000       0.32180000       0.26460000
    49  C          0.77040000       0.27281700       0.74330000
    50  C          0.72960000       0.77281700       0.75670000
    51  C          0.22960000       0.72718300       0.25670000
    52  C          0.27040000       0.22718300       0.24330000
    53  H          0.77830000       0.28020000       0.83750000
    54  H          0.72170000       0.78020000       0.66250000
    55  H          0.22170000       0.71980000       0.16250000
    56  H          0.27830000       0.21980000       0.33750000
    57  C          0.41630000       0.11981300       0.59430000
    58  C          0.08370000       0.61981300       0.90570000
    59  C          0.58370000       0.88018700       0.40570000
    60  C          0.91630000       0.38018700       0.09430000
    61  H          0.53310000       0.11690000       0.61570000
    62  H          0.96690000       0.61690000       0.88430000
    63  H          0.46690000       0.88310000       0.38430000
    64  H          0.03310000       0.38310000       0.11570000
    65  C          0.31140000       0.07341600       0.53030000
    66  C          0.18860000       0.57341600       0.96970000
    67  C          0.68860000       0.92658400       0.46970000
    68  C          0.81140000       0.42658400       0.03030000
    69  H          0.35740000       0.03770000       0.50320000
    70  H          0.14260000       0.53770000      -0.00320000
    71  H          0.64260000       0.96230000       0.49680000
    72  H          0.85740000       0.46230000       0.00320000
    73  C          0.13730000       0.07441300       0.49930000
    74  C          0.36270000       0.57441300       0.00070000
    75  C          0.86270000       0.92558700       0.50070000
    76  C          0.63730000       0.42558700      -0.00070000
    77  H          0.07010000       0.03990000       0.45400000
    78  H          0.42990000       0.53990000       0.04600000
    79  H          0.92990000       0.96010000       0.54600000
    80  H          0.57010000       0.46010000       0.95400000
    81  C          0.06330000       0.12711000       0.53520000
    82  C          0.43670000       0.62711000       0.96480000
    83  C          0.93670000       0.87289000       0.46480000
    84  C          0.56330000       0.37289000       0.03520000
    85  C          0.73840000       0.25201200       0.46430000
    86  C          0.76160000       0.75201200       0.03570000
    87  C          0.26160000       0.74798800       0.53570000
    88  C          0.23840000       0.24798800       0.96430000
    89  H          0.72390000       0.24670000       0.36750000
    90  H          0.77610000       0.74670000       0.13250000
    91  H          0.27610000       0.75330000       0.63250000
    92  H          0.22390000       0.25330000       0.86750000
    93  C          0.80430000       0.14621100       0.21630000
    94  C          0.69570000       0.64621100       0.28370000
    95  C          0.19570000       0.85378900       0.78370000
    96  C          0.30430000       0.35378900       0.71630000
    97  H          0.90150000       0.17110000       0.25020000
    98  H          0.59850000       0.67110000       0.24980000
    99  H          0.09850000       0.82890000       0.74980000
   100  H          0.40150000       0.32890000       0.75020000
   101  O          0.80181700       0.07347000       0.58241500
   102  O          0.69818300       0.57347000       0.91758500
   103  O          0.19818300       0.92653000       0.41758500
   104  O          0.30181700       0.42653000       0.08241500
   105  C          0.17130000       0.17981000       0.60120000
   106  C          0.32870000       0.67981000       0.89880000
   107  C          0.82870000       0.82019000       0.39880000
   108  C          0.67130000       0.32019000       0.10120000
   109  H          0.12460000       0.21640000       0.62320000
   110  H          0.37540000       0.71640000       0.87680000
   111  H          0.87540000       0.78360000       0.37680000
   112  H          0.62460000       0.28360000       0.12320000
   113  C          0.33940000       0.17591100       0.63030000
   114  C          0.16060000       0.67591100       0.86970000
   115  C          0.66060000       0.82408900       0.36970000
   116  C          0.83940000       0.32408900       0.13030000
   117  H          0.40780000       0.21000000       0.67340000
   118  H          0.09220000       0.71000000       0.82660000
   119  H          0.59220000       0.79000000       0.32660000
   120  H          0.90780000       0.29000000       0.17340000
   121  C          0.72940000       0.13771300       0.07230000
   122  C          0.77060000       0.63771300       0.42770000
   123  C          0.27060000       0.86228700       0.92770000
   124  C          0.22940000       0.36228700       0.57230000
   125  H          0.77470000       0.15640000       0.00940000
   126  H          0.72530000       0.65640000       0.49060000
   127  H          0.22530000       0.84360000      -0.00940000
   128  H          0.27470000       0.34360000       0.50940000
   129  C          0.70240000       0.31091500       0.51230000
   130  C          0.79760000       0.81091500      -0.01230000
   131  C          0.29760000       0.68908500       0.48770000
   132  C          0.20240000       0.18908500       0.01230000
   133  H          0.66700000       0.34480000       0.44840000
   134  H          0.83300000       0.84480000       0.05160000
   135  H          0.33300000       0.65520000       0.55160000
   136  H          0.16700000       0.15520000       0.94840000
   137  C          0.72030000       0.31701400       0.64630000
   138  C          0.77970000       0.81701400       0.85370000
   139  C          0.27970000       0.68298600       0.35370000
   140  C          0.22030000       0.18298600       0.14630000
   141  H          0.69540000       0.35620000       0.67590000
   142  H          0.80460000       0.85620000       0.82410000
   143  H          0.30460000       0.64380000       0.32410000
   144  H          0.19540000       0.14380000       0.17590000
