data_HUFCAO
_symmetry_space_group_name_H-M    'P1'
_symmetry_Int_Tables_number       1
loop_
_symmetry_equiv_pos_site_id
_symmetry_equiv_pos_as_xyz
1 x,y,z
_cell_length_a                   10.74544
_cell_length_b                   12.52785
_cell_length_c                   15.20426
_cell_angle_alpha                104.5863
_cell_angle_beta                 102.9073
_cell_angle_gamma                101.3343
loop_
_atom_site_label
_atom_site_type_symbol
_atom_site_fract_x
_atom_site_fract_y
_atom_site_fract_z
     1  F          0.04284800       0.90180700       0.05181500
     2  F          0.95715200       0.09819300       0.94818500
     3  F          0.12957800       0.07891700       0.13530600
     4  F          0.87042200       0.92108300       0.86469400
     5  F          0.22396800      -0.00337300       0.03686500
     6  F          0.77603200       0.00337300       0.96313500
     7  O          0.35575800       0.03385700       0.22541600
     8  O          0.64424200       0.96614300       0.77458400
     9  O          0.22176900       0.01828800       0.41974600
    10  O          0.77823100       0.98171200       0.58025400
    11  H          0.28881800       0.04221500       0.47111300
    12  H          0.71118200       0.95778500       0.52888700
    13  O          0.57364900       0.90504800       0.41626600
    14  O          0.42635100       0.09495200       0.58373400
    15  O          0.26629900       0.84275700       0.13399600
    16  O          0.73370100       0.15724300       0.86600400
    17  H          0.35920000       0.85221800       0.13981600
    18  H          0.64080000       0.14778200       0.86018400
    19  N          0.50262100       0.05290900       0.37371700
    20  N          0.49737900       0.94709100       0.62628300
    21  H          0.57701900       0.09171500       0.37521300
    22  H          0.42298100       0.90828500       0.62478700
    23  N          0.35235100       0.89970900       0.36447800
    24  N          0.64764900       0.10029100       0.63552200
    25  H          0.32261700       0.83911500       0.37711200
    26  H          0.67738300       0.16088500       0.62288800
    27  C          0.15852120       0.98039100       0.09971900
    28  C          0.84147880       0.01960900       0.90028100
    29  C          0.16510110       0.92954100       0.25183800
    30  C          0.83489890       0.07045900       0.74816200
    31  H          0.09930000       0.97260000       0.25100000
    32  H          0.90070000       0.02740000       0.74900000
    33  H          0.12180000       0.84970000       0.24040000
    34  H          0.87820000       0.15030000       0.75960000
    35  C          0.27476110       0.97746100       0.34540800
    36  C          0.72523890       0.02253900       0.65459200
    37  C          0.37992110       0.06968100       0.32824800
    38  C          0.62007890       0.93031900       0.67175200
    39  C          0.37075130       0.19141100       0.35969900
    40  C          0.62924870       0.80858900       0.64030100
    41  H          0.38180000       0.21520000       0.42680000
    42  H          0.61820000       0.78480000       0.57320000
    43  H          0.28560000       0.19580000       0.32660000
    44  H          0.71440000       0.80420000       0.67340000
    45  H          0.43900000       0.24060000       0.34570000
    46  H          0.56100000       0.75940000       0.65430000
    47  C          0.48537120       0.94854100       0.38774800
    48  C          0.51462880       0.05145900       0.61225200
    49  C          0.23889110       0.94337900       0.17837800
    50  C          0.76110890       0.05662100       0.82162200
    51  F          0.39706900       0.66237100       0.46083600
    52  F          0.60293100       0.33762900       0.53916400
    53  F          0.34674110       0.47971100       0.39722700
    54  F          0.65325890       0.52028900       0.60277300
    55  F          0.21563900       0.55604800       0.46507600
    56  F          0.78436100       0.44395200       0.53492400
    57  O          0.17432100       0.67943700       0.33925700
    58  O          0.82567900       0.32056300       0.66074300
    59  H          0.10320000       0.66361800       0.35731600
    60  H          0.89680000       0.33638200       0.64268400
    61  O          0.27664900       0.49920800       0.08890600
    62  O          0.72335100       0.50079200       0.91109400
    63  H          0.21771900       0.46751600       0.03531400
    64  H          0.78228100       0.53248400       0.96468600
    65  O          0.91258100       0.61671700       0.07808600
    66  O          0.08741900       0.38328300       0.92191400
    67  O          0.12353900       0.48086700       0.27086600
    68  O          0.87646100       0.51913300       0.72913400
    69  N          0.13219100       0.61459900       0.12290800
    70  N          0.86780900       0.38540100       0.87709200
    71  H          0.16711700       0.68511500       0.12121200
    72  H          0.83288300       0.31488500       0.87878800
    73  N          0.97985900       0.46907900       0.12361800
    74  N          0.02014100       0.53092100       0.87638200
    75  H          0.90280000       0.43031600       0.11811400
    76  H          0.09720000       0.56968400       0.88188600
    77  C          0.29630140       0.57001130       0.41068900
    78  C          0.70369860       0.42998870       0.58931100
    79  C          0.22313120       0.58466100       0.31768800
    80  C          0.77686880       0.41533900       0.68231200
    81  C          0.30959120       0.59708100       0.25191800
    82  C          0.69040880       0.40291900       0.74808200
    83  H          0.37790000       0.55720000       0.26110000
    84  H          0.62210000       0.44280000       0.73890000
    85  H          0.35090000       0.67690000       0.26170000
    86  H          0.64910000       0.32310000       0.73830000
    87  C          0.20967120       0.54142100       0.15363800
    88  C          0.79032880       0.45857900       0.84636200
    89  C          0.10088120       0.44921100       0.16840800
    90  C          0.89911880       0.55078900       0.83159200
    91  C          0.10494140       0.32617100       0.13435100
    92  C          0.89505860       0.67382900       0.86564900
    93  H          0.18910000       0.31870000       0.16620000
    94  H          0.81090000       0.68130000       0.83380000
    95  H          0.09290000       0.30360000       0.06720000
    96  H          0.90710000       0.69640000       0.93280000
    97  H          0.03540000       0.27800000       0.14800000
    98  H          0.96460000       0.72200000       0.85200000
    99  C         -0.00017120       0.57135100       0.10613800
   100  C          0.00017120       0.42864900       0.89386200
   101  N          0.51657110       0.83954900       0.14893800
   102  N          0.48342890       0.16045100       0.85106200
   103  C          0.75807140       0.81475130       0.12154100
   104  C          0.24192860       0.18524870       0.87845900
   105  H          0.83870000       0.80650000       0.11200000
   106  H          0.16130000       0.19350000       0.88800000
   107  C          0.53318130       0.73590110       0.11200900
   108  C          0.46681870       0.26409890       0.88799100
   109  H          0.46170000       0.67200000       0.09530000
   110  H          0.53830000       0.32800000       0.90470000
   111  C          0.65162140       0.71976120       0.09758100
   112  C          0.34837860       0.28023880       0.90241900
   113  H          0.65960000       0.64650000       0.07230000
   114  H          0.34040000       0.35350000       0.92770000
   115  C          0.74248140       0.92204120       0.15982100
   116  C          0.25751860       0.07795880       0.84017900
   117  H          0.81250000      -0.01280000       0.17660000
   118  H          0.18750000       0.01280000       0.82340000
   119  C          0.62068130       0.93084110       0.17270900
   120  C          0.37931870       0.06915890       0.82729100
   121  H          0.61080000       0.00310000       0.19890000
   122  H          0.38920000      -0.00310000       0.80110000
   123  N          0.76418890       0.17437900       0.37793800
   124  N          0.23581110       0.82562100       0.62206200
   125  C          0.78791870       0.25603110       0.33693900
   126  C          0.21208130       0.74396890       0.66306100
   127  H          0.71900000       0.28670000       0.31600000
   128  H          0.28100000       0.71330000       0.68400000
   129  C          0.90944860       0.29728120       0.32406100
   130  C          0.09055140       0.70271880       0.67593900
   131  H          0.92170000       0.35430000       0.29530000
   132  H          0.07830000       0.64570000       0.70470000
   133  C          0.01262140       0.25214120       0.35486100
   134  C         -0.01262140       0.74785880       0.64513900
   135  H          0.09560000       0.27860000       0.34750000
   136  H          0.90440000       0.72140000       0.65250000
   137  C         -0.00986140       0.16689120       0.39685100
   138  C          0.00986140       0.83310880       0.60314900
   139  H          0.05720000       0.13420000       0.41760000
   140  H          0.94280000       0.86580000       0.58240000
   141  C          0.86469860       0.13145120       0.40711100
   142  C          0.13530140       0.86854880       0.59288900
   143  H          0.84990000       0.07470000       0.43590000
   144  H          0.15010000       0.92530000       0.56410000
   145  N          0.72004110       0.33802100       0.11597800
   146  N          0.27995890       0.66197900       0.88402200
   147  C          0.52368160       0.36895140       0.15471130
   148  C          0.47631840       0.63104860       0.84528870
   149  H          0.47740000       0.42050000       0.17630000
   150  H          0.52260000       0.57950000       0.82370000
   151  C          0.66329140       0.22547120       0.09027100
   152  C          0.33670860       0.77452880       0.90972900
   153  H          0.71040000       0.17540000       0.06730000
   154  H          0.28960000       0.82460000       0.93270000
   155  C          0.53871150       0.17951120       0.09588100
   156  C          0.46128850       0.82048880       0.90411900
   157  H          0.50360000       0.10060000       0.07770000
   158  H          0.49640000       0.89940000       0.92230000
   159  C          0.46754150       0.25243140       0.12890120
   160  C          0.53245850       0.74756860       0.87109880
   161  H          0.38350000       0.22400000       0.13380000
   162  H          0.61650000       0.77600000       0.86620000
   163  C          0.64958150       0.40755120       0.14791110
   164  C          0.35041850       0.59244880       0.85208890
   165  H          0.68720000       0.48610000       0.16660000
   166  H          0.31280000       0.51390000       0.83340000
   167  N          0.93620880       0.66205100       0.36694900
   168  N          0.06379120       0.33794900       0.63305100
   169  C          0.85569860       0.59152120       0.39545100
   170  C          0.14430140       0.40847880       0.60454900
   171  H          0.88320000       0.53120000       0.41130000
   172  H          0.11680000       0.46880000       0.58870000
   173  C          0.73260860       0.60440120       0.40249100
   174  C          0.26739140       0.39559880       0.59750900
   175  H          0.67850000       0.55300000       0.42190000
   176  H          0.32150000       0.44700000       0.57810000
   177  C          0.69155870       0.69457120       0.38034900
   178  C          0.30844130       0.30542880       0.61965100
   179  H          0.60980000       0.70530000       0.38510000
   180  H          0.39020000       0.29470000       0.61490000
   181  C          0.77415840       0.76844130       0.35102110
   182  C          0.22584160       0.23155870       0.64897890
   183  H          0.74940000       0.82990000       0.33540000
   184  H          0.25060000       0.17010000       0.66460000
   185  C          0.89464830       0.74868140       0.34540120
   186  C          0.10535170       0.25131860       0.65459880
   187  H          0.95000000       0.79850000       0.32550000
   188  H          0.05000000       0.20150000       0.67450000
