data_HUFWOV
_symmetry_space_group_name_H-M    'P1'
_symmetry_Int_Tables_number       1
loop_
_symmetry_equiv_pos_site_id
_symmetry_equiv_pos_as_xyz
1 x,y,z
_cell_length_a                   7.70866
_cell_length_b                   10.99999
_cell_length_c                   20.982716
_cell_angle_alpha                94.67801
_cell_angle_beta                 92.08301
_cell_angle_gamma                99.85101
loop_
_atom_site_label
_atom_site_type_symbol
_atom_site_fract_x
_atom_site_fract_y
_atom_site_fract_z
     1  S          0.25610130       0.26698800       0.43362400
     2  S          0.74389870       0.73301200       0.56637600
     3  Cl         0.15231150       0.94451100       0.71997400
     4  Cl         0.84768850       0.05548900       0.28002600
     5  Cl         0.48468130       0.77336900       0.21104400
     6  Cl         0.51531870       0.22663100       0.78895600
     7  N          0.18203000       0.12292000       0.54344120
     8  N          0.81797000       0.87708000       0.45655880
     9  N          0.24413000       0.05972000       0.49247110
    10  N          0.75587000       0.94028000       0.50752890
    11  H          0.26080000       0.98470000       0.49440000
    12  H          0.73920000       0.01530000       0.50560000
    13  N          0.33413000       0.05392000       0.39024110
    14  N          0.66587000       0.94608000       0.60975890
    15  H          0.35340000       0.08770000       0.35500000
    16  H          0.64660000       0.91230000       0.64500000
    17  N          0.36183000       0.93492000       0.39441110
    18  N          0.63817000       0.06508000       0.60558890
    19  C          0.09024000       0.08623000       0.70951150
    20  C          0.90976000       0.91377000       0.29048850
    21  C          0.10444000       0.13573000       0.65067140
    22  C          0.89556000       0.86427000       0.34932860
    23  C          0.06054000       0.25233000       0.64682160
    24  C          0.93946000       0.74767000       0.35317840
    25  H          0.06900000       0.28800000       0.60810000
    26  H          0.93100000       0.71200000       0.39190000
    27  C          0.00455000       0.31624000       0.69922000
    28  C         -0.00455000       0.68376000       0.30078000
    29  H          0.97760000       0.39480000       0.69600000
    30  H          0.02240000       0.60520000       0.30400000
    31  C         -0.01145000       0.26325000       0.75622000
    32  C          0.01145000       0.73675000       0.24378000
    33  H          0.94880000       0.30570000       0.79130000
    34  H          0.05120000       0.69430000       0.20870000
    35  C          0.03065000       0.14954000       0.76173170
    36  C          0.96935000       0.85046000       0.23826830
    37  H          0.01920000       0.11410000       0.80050000
    38  H         -0.01920000       0.88590000       0.19950000
    39  C          0.16714000       0.07023000       0.59493140
    40  C          0.83286000       0.92977000       0.40506860
    41  H          0.19530000      -0.00820000       0.59730000
    42  H          0.80470000       0.00820000       0.40270000
    43  C          0.27774000       0.11873000       0.43966140
    44  C          0.72226000       0.88127000       0.56033860
    45  C          0.40204000       0.88083000       0.34211150
    46  C          0.59796000       0.11917000       0.65788850
    47  H          0.40750000       0.92310000       0.30540000
    48  H          0.59250000       0.07690000       0.69460000
    49  C          0.43894000       0.75643000       0.33816140
    50  C          0.56106000       0.24357000       0.66183860
    51  C          0.47854000       0.69723000       0.28059150
    52  C          0.52146000       0.30277000       0.71940850
    53  C          0.51555000       0.57923000       0.27706190
    54  C          0.48445000       0.42077000       0.72293810
    55  H          0.54340000       0.54200000       0.23830000
    56  H          0.45660000       0.45800000       0.76170000
    57  C          0.51125000       0.51664000       0.33072000
    58  C          0.48875000       0.48336000       0.66928000
    59  H          0.53510000       0.43640000       0.32830000
    60  H          0.46490000       0.56360000       0.67170000
    61  C          0.47195000       0.57143000       0.38812000
    62  C          0.52805000       0.42857000       0.61188000
    63  H          0.46880000       0.52840000       0.42450000
    64  H          0.53120000       0.47160000       0.57550000
    65  C          0.43694000       0.68983000       0.39182160
    66  C          0.56306000       0.31017000       0.60817840
    67  H          0.41140000       0.72650000       0.43110000
    68  H          0.58860000       0.27350000       0.56890000
    69  S          0.40630120       0.14705900       0.24096400
    70  S          0.59369880       0.85294100       0.75903600
    71  Cl         0.21316120       0.52305800       0.10925500
    72  Cl         0.78683880       0.47694200       0.89074500
    73  Cl         0.22413150       0.84368100       0.07317500
    74  Cl         0.77586850       0.15631900       0.92682500
    75  N          0.05534000       0.36112000       0.26242120
    76  N          0.94466000       0.63888000       0.73757880
    77  N          0.17963000       0.29492000       0.28209110
    78  N          0.82037000       0.70508000       0.71790890
    79  H          0.21210000       0.29430000       0.32170000
    80  H          0.78790000       0.70570000       0.67830000
    81  N          0.15653000       0.25892000       0.18135110
    82  N          0.84347000       0.74108000       0.81864890
    83  N          0.17433000       0.22512000       0.11665110
    84  N          0.82567000       0.77488000       0.88334890
    85  C         -0.01094000       0.47113000       0.11266150
    86  C          0.01094000       0.52887000       0.88733850
    87  C          0.92736000       0.38903000       0.15659140
    88  C          0.07264000       0.61097000       0.84340860
    89  C          0.74705000       0.35563000       0.16078160
    90  C          0.25295000       0.64437000       0.83921840
    91  H          0.70330000       0.30190000       0.19070000
    92  H          0.29670000       0.69810000       0.80930000
    93  C          0.63185000       0.40104000       0.12104190
    94  C          0.36815000       0.59896000       0.87895810
    95  H          0.51090000       0.37650000       0.12350000
    96  H          0.48910000       0.62350000       0.87650000
    97  C          0.69604000       0.48194000       0.07809180
    98  C          0.30396000       0.51806000       0.92190820
    99  H          0.61810000       0.51300000       0.05160000
   100  H          0.38190000       0.48700000       0.94840000
   101  C          0.87545000       0.51803000       0.07351160
   102  C          0.12455000       0.48197000       0.92648840
   103  H          0.91860000       0.57350000       0.04430000
   104  H          0.08140000       0.42650000       0.95570000
   105  C          0.04614000       0.33993000       0.20069140
   106  C          0.95386000       0.66007000       0.79930860
   107  C          0.24654000       0.23113000       0.23466140
   108  C          0.75346000       0.76887000       0.76533860
   109  C          0.20224000       0.11613000       0.10273140
   110  C          0.79776000       0.88387000       0.89726860
   111  H          0.20490000       0.06240000       0.13460000
   112  H          0.79510000       0.93760000       0.86540000
   113  C          0.23014000       0.07493000       0.03672140
   114  C          0.76986000       0.92507000       0.96327860
   115  C          0.24254000       0.95357000       0.01809150
   116  C          0.75746000       0.04643000       0.98190850
   117  C          0.27205000       0.91636000       0.95558000
   118  C          0.72795000       0.08364000       0.04442000
   119  H          0.28030000       0.83430000       0.94390000
   120  H          0.71970000       0.16570000       0.05610000
   121  C          0.28906000       0.00125000       0.91138810
   122  C          0.71094000      -0.00125000       0.08861190
   123  H          0.31080000       0.97670000       0.86940000
   124  H          0.68920000       0.02330000       0.13060000
   125  C          0.27446000       0.12235000       0.92806820
   126  C          0.72554000       0.87765000       0.07193180
   127  H          0.28390000       0.17890000       0.89730000
   128  H          0.71610000       0.82110000       0.10270000
   129  C          0.24585000       0.15943000       0.99005850
   130  C          0.75415000       0.84057000       0.00994150
   131  H          0.23660000       0.24150000       0.00130000
   132  H          0.76340000       0.75850000      -0.00130000
   133  O          0.16824000       0.79543000       0.52080140
   134  O          0.83176000       0.20457000       0.47919860
   135  H          0.06080000       0.79010000       0.52110000
   136  H          0.93920000       0.20990000       0.47890000
   137  C          0.16078000       0.59626000       0.55954000
   138  C          0.83922000       0.40374000       0.44046000
   139  H          0.03410000       0.58220000       0.55740000
   140  H          0.96590000       0.41780000       0.44260000
   141  H          0.20230000       0.56180000       0.59660000
   142  H          0.79770000       0.43820000       0.40340000
   143  H          0.20140000       0.55720000       0.52170000
   144  H          0.79860000       0.44280000       0.47830000
   145  C          0.22297000       0.71926000       0.56363000
   146  C          0.77703000       0.28074000       0.43637000
   147  H          0.35010000       0.72900000       0.56210000
   148  H          0.64990000       0.27100000       0.43790000
   149  H          0.19860000       0.75240000       0.60600000
   150  H          0.80140000       0.24760000       0.39400000
