data_HUHDUK01
_symmetry_space_group_name_H-M    'P1'
_symmetry_Int_Tables_number       1
loop_
_symmetry_equiv_pos_site_id
_symmetry_equiv_pos_as_xyz
1 x,y,z
_cell_length_a                   3.8111
_cell_length_b                   10.3423
_cell_length_c                   10.8443
_cell_angle_alpha                65.843
_cell_angle_beta                 85.833
_cell_angle_gamma                89.453
loop_
_atom_site_label
_atom_site_type_symbol
_atom_site_fract_x
_atom_site_fract_y
_atom_site_fract_z
     1  C          0.13101100       0.83534000       0.64716000
     2  C         -0.02621000       0.78114000       0.56126000
     3  C          0.92728900       0.86865000       0.42865000
     4  H          0.82990000       0.83140000       0.37370000
     5  C          0.02151100       0.00954000       0.37576000
     6  C          0.18281000       0.06604000       0.45896000
     7  H          0.25340000       0.16090000       0.42480000
     8  C          0.22951000       0.97704000       0.58936000
     9  H          0.33450000       0.01390000       0.64320000
    10  C          0.17931100       0.74184000       0.78716000
    11  O          0.87122000       0.64253000       0.60957000
    12  H          0.91490000       0.60200000       0.68920000
    13  O         -0.02348000       0.10463000       0.25037000
    14  H          0.88110000       0.06600000       0.20850000
    15  O          0.32538000       0.80413000       0.85687000
    16  H          0.34530000       0.74580000       0.93470000
    17  O          0.09737000       0.61303000       0.84047000
    18  C          0.59741100       0.51614000       0.13094000
    19  H          0.66440000       0.49210000       0.05900000
    20  C          0.65601000       0.42004000       0.26114000
    21  H          0.76120000       0.33410000       0.27500000
    22  C          0.55581100       0.45324000       0.37124000
    23  C          0.40251000       0.58544000       0.34154000
    24  H          0.33300000       0.61300000       0.41100000
    25  C          0.35511100       0.67514000       0.20774000
    26  H          0.25270000       0.76240000       0.18960000
    27  C          0.61991100       0.35224000       0.50844000
    28  H          0.74670000       0.27210000       0.51700000
    29  C          0.51181000       0.36574000       0.62214000
    30  H          0.38150000       0.44520000       0.61280000
    31  C          0.78641000       0.05054000       0.92894000
    32  H          0.88850000       0.96270000       0.94940000
    33  C          0.73631000       0.13424000       0.79554000
    34  H          0.80650000       0.10320000       0.72840000
    35  C          0.57829000       0.26714000       0.76074000
    36  C          0.48311000       0.30634000       0.86704000
    37  H          0.37900000       0.39310000       0.84970000
    38  C          0.54391000       0.21564000      -0.00176000
    39  H          0.47600000       0.24410000       0.06730000
    40  N          0.45049000       0.64103000       0.10383000
    41  N          0.69509000       0.08913000       0.03223000
