data_HUJNUX
_symmetry_space_group_name_H-M    'P1'
_symmetry_Int_Tables_number       1
loop_
_symmetry_equiv_pos_site_id
_symmetry_equiv_pos_as_xyz
1 x,y,z
_cell_length_a                   7.099614
_cell_length_b                   7.728714
_cell_length_c                   9.750816
_cell_angle_alpha                111.6487
_cell_angle_beta                 107.8437
_cell_angle_gamma                94.7008
loop_
_atom_site_label
_atom_site_type_symbol
_atom_site_fract_x
_atom_site_fract_y
_atom_site_fract_z
     1  I          0.55774200       0.20499200       0.90205010
     2  I          0.44225800       0.79500800       0.09794990
     3  I          0.96856200       0.30598200       0.76657010
     4  I          0.03143800       0.69401800       0.23342990
     5  O          0.21272000       0.90852000       0.59905170
     6  O          0.78728000       0.09148000       0.40094830
     7  C          0.34212000       0.95392000       0.55405170
     8  C          0.65788000       0.04608000       0.44594830
     9  C          0.53722000       0.09052000       0.66639160
    10  C          0.46278000       0.90948000       0.33360840
    11  C          0.68672000       0.13012000       0.61786160
    12  C          0.31328000       0.86988000       0.38213840
    13  S          0.79700600       0.66047800       0.54290500
    14  S          0.20299400       0.33952200       0.45709500
    15  S          0.58698700       0.64206800       0.75708500
    16  S          0.41301300       0.35793200       0.24291500
    17  C          0.58032000       0.56392000       0.56254180
    18  C          0.41968000       0.43608000       0.43745820
    19  C          0.82943000       0.78373000       0.84062000
    20  C          0.17057000       0.21627000       0.15938000
    21  C          0.92542000       0.79273000       0.74532000
    22  C          0.07458000       0.20727000       0.25468000
    23  H          0.88450000       0.84750000       0.94940000
    24  H          0.11550000       0.15250000       0.05060000
    25  H          0.05640000       0.85140000       0.77330000
    26  H          0.94360000       0.14860000       0.22670000
