data_HUMYOE
_symmetry_space_group_name_H-M    'P1'
_symmetry_Int_Tables_number       1
loop_
_symmetry_equiv_pos_site_id
_symmetry_equiv_pos_as_xyz
1 x,y,z
_cell_length_a                   18.76457
_cell_length_b                   3.804801
_cell_length_c                   22.01417
_cell_angle_alpha                90.0
_cell_angle_beta                 94.7432
_cell_angle_gamma                90.0
loop_
_atom_site_label
_atom_site_type_symbol
_atom_site_fract_x
_atom_site_fract_y
_atom_site_fract_z
     1  S          0.38947200       0.40860110       0.36185917
     2  S          0.61052800       0.40860110       0.13814083
     3  S          0.61052800       0.59139890       0.63814083
     4  S          0.38947200       0.59139890       0.86185917
     5  O          0.07261700       0.04024000       0.41814600
     6  O          0.92738300       0.04024000       0.08185400
     7  O          0.92738300       0.95976000       0.58185400
     8  O          0.07261700       0.95976000       0.91814600
     9  O          0.10142700       0.30334000       0.33651600
    10  O          0.89857300       0.30334000       0.16348400
    11  O          0.89857300       0.69666000       0.66348400
    12  O          0.10142700       0.69666000       0.83651600
    13  N          0.40641700       0.09814000       0.46880600
    14  N          0.59358300       0.09814000       0.03119400
    15  N          0.59358300       0.90186000       0.53119400
    16  N          0.40641700       0.90186000       0.96880600
    17  N          0.51246800       0.28144000       0.42960700
    18  N          0.48753200       0.28144000       0.07039300
    19  N          0.48753200       0.71856000       0.57039300
    20  N          0.51246800       0.71856000       0.92960700
    21  N          0.11751800       0.16384000       0.38628700
    22  N          0.88248200       0.16384000       0.11371300
    23  N          0.88248200       0.83616000       0.61371300
    24  N          0.11751800       0.83616000       0.88628700
    25  C          0.44214900       0.24714000       0.42639700
    26  C          0.55785100       0.24714000       0.07360300
    27  C          0.55785100       0.75286000       0.57360300
    28  C          0.44214900       0.75286000       0.92639700
    29  C          0.33432900       0.10514000       0.45209700
    30  C          0.66567100       0.10514000       0.04790300
    31  C          0.66567100       0.89486000       0.54790300
    32  C          0.33432900       0.89486000       0.95209700
    33  C          0.31369800       0.26174000       0.39489700
    34  C          0.68630200       0.26174000       0.10510300
    35  C          0.68630200       0.73826000       0.60510300
    36  C          0.31369800       0.73826000       0.89489700
    37  C          0.24286800       0.28464000       0.37228700
    38  C          0.75713200       0.28464000       0.12771300
    39  C          0.75713200       0.71536000       0.62771300
    40  C          0.24286800       0.71536000       0.87228700
    41  H          0.22930000       0.38980000       0.33390000
    42  H          0.77070000       0.38980000       0.16610000
    43  H          0.77070000       0.61020000       0.66610000
    44  H          0.22930000       0.61020000       0.83390000
    45  C          0.19247900       0.14604000       0.40852700
    46  C          0.80752100       0.14604000       0.09147300
    47  C          0.80752100       0.85396000       0.59147300
    48  C          0.19247900       0.85396000       0.90852700
    49  C          0.21077900      -0.00814000       0.46503800
    50  C          0.78922100      -0.00814000       0.03496200
    51  C          0.78922100       0.00814000       0.53496200
    52  C          0.21077900       0.00814000       0.96503800
    53  H          0.17460000       0.90160000       0.48840000
    54  H          0.82540000       0.90160000       0.01160000
    55  H          0.82540000       0.09840000       0.51160000
    56  H          0.17460000       0.09840000       0.98840000
    57  C          0.28156900      -0.02914000       0.48688700
    58  C          0.71843100      -0.02914000       0.01311300
    59  C          0.71843100       0.02914000       0.51311300
    60  C          0.28156900       0.02914000       0.98688700
    61  H          0.29450000       0.86580000       0.52540000
    62  H          0.70550000       0.86580000       0.97460000
    63  H          0.70550000       0.13420000       0.47460000
    64  H          0.29450000       0.13420000       0.02540000
    65  H          0.53181000       0.38550000       0.39889000
    66  H          0.46819000       0.38550000       0.10111000
    67  H          0.46819000       0.61450000       0.60111000
    68  H          0.53181000       0.61450000       0.89889000
    69  H          0.53871100       0.18260000       0.46121000
    70  H          0.46128900       0.18260000       0.03879000
    71  H          0.46128900       0.81740000       0.53879000
    72  H          0.53871100       0.81740000       0.96121000
    73  O          0.54140700       0.66154000       0.32354600
    74  O          0.45859300       0.66154000       0.17645400
    75  O          0.45859300       0.33846000       0.67645400
    76  O          0.54140700       0.33846000       0.82354600
    77  N          0.88565700       0.67714000       0.34850600
    78  N          0.11434300       0.67714000       0.15149400
    79  N          0.11434300       0.32286000       0.65149400
    80  N          0.88565700       0.32286000       0.84850600
    81  C          0.58738900       0.77205000       0.29226800
    82  C          0.41261100       0.77205000       0.20773200
    83  C          0.41261100       0.22795000       0.70773200
    84  C          0.58738900       0.22795000       0.79226800
    85  H          0.57180000       0.88040000       0.25460000
    86  H          0.42820000       0.88040000       0.24540000
    87  H          0.42820000       0.11960000       0.74540000
    88  H          0.57180000       0.11960000       0.75460000
    89  C          0.66388900       0.75114000       0.30795700
    90  C          0.33611100       0.75114000       0.19204300
    91  C          0.33611100       0.24886000       0.69204300
    92  C          0.66388900       0.24886000       0.80795700
    93  C          0.71160900       0.86454000       0.26636700
    94  C          0.28839100       0.86454000       0.23363300
    95  C          0.28839100       0.13546000       0.73363300
    96  C          0.71160900       0.13546000       0.76636700
    97  H          0.69310000       0.95960000       0.22840000
    98  H          0.30690000       0.95960000       0.27160000
    99  H          0.30690000       0.04040000       0.77160000
   100  H          0.69310000       0.04040000       0.72840000
   101  C          0.78442900       0.84194000       0.27899700
   102  C          0.21557100       0.84194000       0.22100300
   103  C          0.21557100       0.15806000       0.72100300
   104  C          0.78442900       0.15806000       0.77899700
   105  H          0.81530000       0.91990000       0.24970000
   106  H          0.18470000       0.91990000       0.25030000
   107  H          0.18470000       0.08010000       0.75030000
   108  H          0.81530000       0.08010000       0.74970000
   109  C          0.81385900       0.70354000       0.33525700
   110  C          0.18614100       0.70354000       0.16474300
   111  C          0.18614100       0.29646000       0.66474300
   112  C          0.81385900       0.29646000       0.83525700
   113  C          0.76534900       0.59474000       0.37771700
   114  C          0.23465100       0.59474000       0.12228300
   115  C          0.23465100       0.40526000       0.62228300
   116  C          0.76534900       0.40526000       0.87771700
   117  H          0.78330000       0.50450000       0.41620000
   118  H          0.21670000       0.50450000       0.08380000
   119  H          0.21670000       0.49550000       0.58380000
   120  H          0.78330000       0.49550000       0.91620000
   121  C          0.69286900       0.61804000       0.36384700
   122  C          0.30713100       0.61804000       0.13615300
   123  C          0.30713100       0.38196000       0.63615300
   124  C          0.69286900       0.38196000       0.86384700
   125  H          0.66150000       0.54180000       0.39300000
   126  H          0.33850000       0.54180000       0.10700000
   127  H          0.33850000       0.45820000       0.60700000
   128  H          0.66150000       0.45820000       0.89300000
   129  C          0.91521100       0.53525000       0.40671800
   130  C          0.08478900       0.53525000       0.09328200
   131  C          0.08478900       0.46475000       0.59328200
   132  C          0.91521100       0.46475000       0.90671800
   133  H          0.96750000       0.53530000       0.40800000
   134  H          0.03250000       0.53530000       0.09200000
   135  H          0.03250000       0.46470000       0.59200000
   136  H          0.96750000       0.46470000       0.90800000
   137  H          0.89810000       0.29410000       0.41130000
   138  H          0.10190000       0.29410000       0.08870000
   139  H          0.10190000       0.70590000       0.58870000
   140  H          0.89810000       0.70590000       0.91130000
   141  H          0.89990000       0.68080000       0.44000000
   142  H          0.10010000       0.68080000       0.06000000
   143  H          0.10010000       0.31920000       0.56000000
   144  H          0.89990000       0.31920000       0.94000000
   145  C          0.93505900       0.78905000       0.30443800
   146  C          0.06494100       0.78905000       0.19556200
   147  C          0.06494100       0.21095000       0.69556200
   148  C          0.93505900       0.21095000       0.80443800
   149  H          0.98430000       0.75010000       0.32140000
   150  H          0.01570000       0.75010000       0.17860000
   151  H          0.01570000       0.24990000       0.67860000
   152  H          0.98430000       0.24990000       0.82140000
   153  H          0.92790000       0.03930000       0.29540000
   154  H          0.07210000       0.03930000       0.20460000
   155  H          0.07210000       0.96070000       0.70460000
   156  H          0.92790000       0.96070000       0.79540000
   157  H          0.92610000       0.65250000       0.26680000
   158  H          0.07390000       0.65250000       0.23320000
   159  H          0.07390000       0.34750000       0.73320000
   160  H          0.92610000       0.34750000       0.76680000
