data_HUNXIX
_symmetry_space_group_name_H-M    'P1'
_symmetry_Int_Tables_number       1
loop_
_symmetry_equiv_pos_site_id
_symmetry_equiv_pos_as_xyz
1 x,y,z
_cell_length_a                   7.01723
_cell_length_b                   12.55484
_cell_length_c                   13.95525
_cell_angle_alpha                83.1762
_cell_angle_beta                 79.0962
_cell_angle_gamma                77.8522
loop_
_atom_site_label
_atom_site_type_symbol
_atom_site_fract_x
_atom_site_fract_y
_atom_site_fract_z
     1  C          0.25714000       0.02272000       0.40188180
     2  C          0.74286000       0.97728000       0.59811820
     3  H          0.14570000       0.02890000       0.45760000
     4  H          0.85430000       0.97110000       0.54240000
     5  H          0.38240000       0.00790000       0.42820000
     6  H          0.61760000      -0.00790000       0.57180000
     7  C          0.25124000       0.93208000       0.34248180
     8  C          0.74876000       0.06792000       0.65751820
     9  H          0.34340000       0.93630000       0.27960000
    10  H          0.65660000       0.06370000       0.72040000
    11  H          0.29240000       0.86060000       0.37840000
    12  H          0.70760000       0.13940000       0.62160000
    13  C          0.03784000       0.86238000       0.26431190
    14  C          0.96216000       0.13762000       0.73568810
    15  H          0.04580000       0.79010000       0.30200000
    16  H          0.95420000       0.20990000       0.69800000
    17  H          0.14700000       0.85680000       0.20760000
    18  H          0.85300000       0.14320000       0.79240000
    19  C          0.84386000       0.89508000       0.22961190
    20  C          0.15614000       0.10492000       0.77038810
    21  H          0.82000000       0.83530000       0.19580000
    22  H          0.18000000       0.16470000       0.80420000
    23  H          0.73570000       0.91010000       0.28600000
    24  H          0.26430000       0.08990000       0.71400000
    25  C          0.67866000       0.02162000       0.11772000
    26  C          0.32134000       0.97838000       0.88228000
    27  H          0.56180000       0.04970000       0.16620000
    28  H          0.43820000       0.95030000       0.83380000
    29  H          0.65320000       0.95690000       0.09160000
    30  H          0.34680000       0.04310000       0.90840000
    31  C          0.71106000       0.10782000       0.03618190
    32  C          0.28894000       0.89218000       0.96381810
    33  H          0.84110000       0.08520000      -0.00550000
    34  H          0.15890000       0.91480000       0.00550000
    35  H          0.60730000       0.11720000      -0.00500000
    36  H          0.39270000       0.88280000       0.00500000
    37  C          0.74056000       0.29522000       0.00072000
    38  C          0.25944000       0.70478000      -0.00072000
    39  H          0.65550000       0.36490000       0.02120000
    40  H          0.34450000       0.63510000       0.97880000
    41  H          0.70480000       0.27940000       0.93930000
    42  H          0.29520000       0.72060000       0.06070000
    43  C          0.95256000       0.30692000       0.98227820
    44  C          0.04744000       0.69308000       0.01772180
    45  H          0.04030000       0.23560000       0.96860000
    46  H          0.95970000       0.76440000       0.03140000
    47  H          0.97780000       0.35980000       0.92510000
    48  H          0.02220000       0.64020000       0.07490000
    49  C          0.18724000       0.36072000       0.05792190
    50  C          0.81276000       0.63928000       0.94207810
    51  H          0.21190000       0.41910000       0.00550000
    52  H          0.78810000       0.58090000      -0.00550000
    53  H          0.28160000       0.29260000       0.04050000
    54  H          0.71840000       0.70740000       0.95950000
    55  C          0.21434000       0.39252000       0.15354190
    56  C          0.78566000       0.60748000       0.84645810
    57  H          0.33840000       0.42080000       0.14530000
    58  H          0.66160000       0.57920000       0.85470000
    59  H          0.10260000       0.45050000       0.17810000
    60  H          0.89740000       0.54950000       0.82190000
    61  C          0.22514000       0.31152000       0.31742180
    62  C          0.77486000       0.68848000       0.68257820
    63  C          0.21684000       0.41162000       0.35232000
    64  C          0.78316000       0.58838000       0.64768000
    65  H          0.21290000       0.47600000       0.30880000
    66  H          0.78710000       0.52400000       0.69120000
    67  C          0.21414000       0.41682000       0.45182000
    68  C          0.78586000       0.58318000       0.54818000
    69  H          0.20940000       0.48510000       0.47590000
    70  H          0.79060000       0.51490000       0.52410000
    71  C          0.21844000       0.32463000       0.51502000
    72  C          0.78156000       0.67537000       0.48498000
    73  H          0.21400000       0.32950000       0.58280000
    74  H          0.78600000       0.67050000       0.41720000
    75  C          0.22914000       0.22312000       0.48019190
    76  C          0.77086000       0.77688000       0.51980810
    77  H          0.23380000       0.15900000       0.52400000
    78  H          0.76620000       0.84100000       0.47600000
    79  C          0.23294000       0.21672000       0.38130170
    80  C          0.76706000       0.78328000       0.61869830
    81  O          0.24233000       0.12213130       0.33903120
    82  O          0.75767000       0.87786870       0.66096880
    83  O          0.05512000       0.94233870       0.32458120
    84  O          0.94488000       0.05766130       0.67541880
    85  O          0.84867000      -0.00877140       0.16366130
    86  O          0.15133000       0.00877140       0.83633870
    87  O          0.70497000       0.20914150       0.07519120
    88  O          0.29503000       0.79085850       0.92480880
    89  O         -0.01013000       0.34457140       0.06752120
    90  O          0.01013000       0.65542860       0.93247880
    91  O          0.22243000       0.29698130       0.22168120
    92  O          0.77757000       0.70301870       0.77831880
    93  O          0.23773000       0.38776160       0.75939150
    94  O          0.76227000       0.61223840       0.24060850
    95  O          0.48583000       0.43278140       0.82871140
    96  O          0.51417000       0.56721860       0.17128860
    97  O          0.56733000       0.35219170       0.67985140
    98  O          0.43267000       0.64780830       0.32014860
    99  O          0.46893000       0.24884130       0.82643140
   100  O          0.53107000       0.75115870       0.17356860
   101  Cl         0.44038800       0.35489400       0.77354400
   102  Cl         0.55961200       0.64510600       0.22645600
   103  O          0.20014000       0.09182000       0.11792000
   104  O          0.79986000       0.90818000       0.88208000
   105  C          0.77746000       0.16672000       0.33042190
   106  C          0.22254000       0.83328000       0.66957810
   107  H          0.80450000       0.09250000       0.31570000
   108  H          0.19550000       0.90750000       0.68430000
   109  C          0.71816000       0.29282000       0.44008180
   110  C          0.28184000       0.70718000       0.55991820
   111  H          0.69770000       0.31050000       0.50600000
   112  H          0.30230000       0.68950000       0.49400000
   113  C          0.71106000       0.37662000       0.36733190
   114  C          0.28894000       0.62338000       0.63266810
   115  H          0.68960000       0.45060000       0.38200000
   116  H          0.31040000       0.54940000       0.61800000
   117  C          0.73626000       0.34982000       0.27273190
   118  C          0.26374000       0.65018000       0.72726810
   119  H          0.73220000       0.40490000       0.21980000
   120  H          0.26780000       0.59510000       0.78020000
   121  N          0.76667000       0.24401160       0.25690150
   122  N          0.23333000       0.75598840       0.74309850
   123  H          0.77980000       0.22540000       0.19680000
   124  H          0.22020000       0.77460000       0.80320000
   125  N          0.75256000       0.18759170       0.42252160
   126  N          0.24744000       0.81240830       0.57747840
