data_HURLIR
_symmetry_space_group_name_H-M    'P1'
_symmetry_Int_Tables_number       1
loop_
_symmetry_equiv_pos_site_id
_symmetry_equiv_pos_as_xyz
1 x,y,z
_cell_length_a                   8.50927
_cell_length_b                   28.1683
_cell_length_c                   12.030012
_cell_angle_alpha                90.0
_cell_angle_beta                 100.5131
_cell_angle_gamma                90.0
loop_
_atom_site_label
_atom_site_type_symbol
_atom_site_fract_x
_atom_site_fract_y
_atom_site_fract_z
     1  C          0.21585000       0.66749150       0.19284000
     2  C          0.78415000       0.16749150       0.30716000
     3  C          0.78415000       0.33250850       0.80716000
     4  C          0.21585000       0.83250850       0.69284000
     5  C          0.08075000       0.69144150       0.14544000
     6  C          0.91925000       0.19144150       0.35456000
     7  C          0.91925000       0.30855850       0.85456000
     8  C          0.08075000       0.80855850       0.64544000
     9  C          0.10515000       0.71338150       0.04434000
    10  C          0.89485000       0.21338150       0.45566000
    11  C          0.89485000       0.28661850       0.95566000
    12  C          0.10515000       0.78661850       0.54434000
    13  C          0.26155000       0.70289160       0.03364000
    14  C          0.73845000       0.20289160       0.46636000
    15  C          0.73845000       0.29710840       0.96636000
    16  C          0.26155000       0.79710840       0.53364000
    17  C          0.25655000       0.63774150       0.29294000
    18  C          0.74345000       0.13774150       0.20706000
    19  C          0.74345000       0.36225850       0.70706000
    20  C          0.25655000       0.86225850       0.79294000
    21  C          0.36145000       0.59950160       0.29805000
    22  C          0.63855000       0.09950160       0.20195000
    23  C          0.63855000       0.40049840       0.70195000
    24  C          0.36145000       0.90049840       0.79805000
    25  H          0.40720000       0.59200000       0.23380000
    26  H          0.59280000       0.09200000       0.26620000
    27  H          0.59280000       0.40800000       0.76620000
    28  H          0.40720000       0.90800000       0.73380000
    29  C          0.39986000       0.57242170       0.39465000
    30  C          0.60014000       0.07242170       0.10535000
    31  C          0.60014000       0.42757830       0.60535000
    32  C          0.39986000       0.92757830       0.89465000
    33  H          0.47470000       0.54720000       0.39750000
    34  H          0.52530000       0.04720000       0.10250000
    35  H          0.52530000       0.45280000       0.60250000
    36  H          0.47470000       0.95280000       0.89750000
    37  C          0.32956000       0.58181170       0.48765000
    38  C          0.67044000       0.08181170       0.01235000
    39  C          0.67044000       0.41818830       0.51235000
    40  C          0.32956000       0.91818830       0.98765000
    41  C          0.22565000       0.61884170       0.48534000
    42  C          0.77435000       0.11884170       0.01466000
    43  C          0.77435000       0.38115830       0.51466000
    44  C          0.22565000       0.88115830       0.98534000
    45  H          0.17880000       0.62550000       0.54950000
    46  H          0.82120000       0.12550000       0.95050000
    47  H          0.82120000       0.37450000       0.45050000
    48  H          0.17880000       0.87450000       0.04950000
    49  C          0.18875000       0.64654160       0.38944000
    50  C          0.81125000       0.14654160       0.11056000
    51  C          0.81125000       0.35345840       0.61056000
    52  C          0.18875000       0.85345840       0.88944000
    53  H          0.11590000       0.67220000       0.38850000
    54  H          0.88410000       0.17220000       0.11150000
    55  H          0.88410000       0.32780000       0.61150000
    56  H          0.11590000       0.82780000       0.88850000
    57  C          0.87045000       0.59587160       0.17685000
    58  C          0.12955000       0.09587160       0.32315000
    59  C          0.12955000       0.40412840       0.82315000
    60  C          0.87045000       0.90412840       0.67685000
    61  C          0.95664000       0.57007190       0.11075000
    62  C          0.04336000       0.07007190       0.38925000
    63  C          0.04336000       0.42992810       0.88925000
    64  C          0.95664000       0.92992810       0.61075000
    65  H          0.96940000       0.58120000       0.03840000
    66  H          0.03060000       0.08120000       0.46160000
    67  H          0.03060000       0.41880000       0.96160000
    68  H          0.96940000       0.91880000       0.53840000
    69  C          0.02428000       0.52742000       0.15317000
    70  C          0.97572000       0.02742000       0.34683000
    71  C          0.97572000       0.47258000       0.84683000
    72  C          0.02428000       0.97258000       0.65317000
    73  H          0.08190000       0.50900000       0.10790000
    74  H          0.91810000       0.00900000       0.39210000
    75  H          0.91810000       0.49100000       0.89210000
    76  H          0.08190000       0.99100000       0.60790000
    77  C          0.01038000       0.51082000       0.25878000
    78  C         -0.01038000       0.01082000       0.24122000
    79  C         -0.01038000       0.48918000       0.74122000
    80  C          0.01038000       0.98918000       0.75878000
    81  C          0.92342000       0.53762000       0.32206000
    82  C          0.07658000       0.03762000       0.17794000
    83  C          0.07658000       0.46238000       0.67794000
    84  C          0.92342000       0.96238000       0.82206000
    85  H          0.91030000       0.52630000       0.39410000
    86  H          0.08970000       0.02630000       0.10590000
    87  H          0.08970000       0.47370000       0.60590000
    88  H          0.91030000       0.97370000       0.89410000
    89  C          0.85554000       0.58022190       0.28375000
    90  C          0.14446000       0.08022190       0.21625000
    91  C          0.14446000       0.41977810       0.71625000
    92  C          0.85554000       0.91977810       0.78375000
    93  H          0.79930000       0.59870000       0.32980000
    94  H          0.20070000       0.09870000       0.17020000
    95  H          0.20070000       0.40130000       0.67020000
    96  H          0.79930000       0.90130000       0.82980000
    97  C          0.08831100       0.46422000       0.30409000
    98  C          0.91168900       0.96422000       0.19591000
    99  C          0.91168900       0.53578000       0.69591000
   100  C          0.08831100       0.03578000       0.80409000
   101  H          0.18090000       0.47090000       0.36330000
   102  H          0.81910000       0.97090000       0.13670000
   103  H          0.81910000       0.52910000       0.63670000
   104  H          0.18090000       0.02910000       0.86330000
   105  H          0.12310000       0.44670000       0.24240000
   106  H          0.87690000       0.94670000       0.25760000
   107  H          0.87690000       0.55330000       0.75760000
   108  H          0.12310000       0.05330000       0.74240000
   109  H          0.01090000       0.44500000       0.33560000
   110  H         -0.01090000       0.94500000       0.16440000
   111  H         -0.01090000       0.55500000       0.66440000
   112  H          0.01090000       0.05500000       0.83560000
   113  C         -0.00085000       0.74448150       0.96796000
   114  C          0.00085000       0.24448150       0.53204000
   115  C          0.00085000       0.25551850       0.03204000
   116  C         -0.00085000       0.75551850       0.46796000
   117  C          0.89395000       0.77867150       0.01504000
   118  C          0.10605000       0.27867150       0.48496000
   119  C          0.10605000       0.22132850       0.98496000
   120  C          0.89395000       0.72132850       0.51504000
   121  C          0.75195000       0.79393170       0.94775000
   122  C          0.24805000       0.29393170       0.55225000
   123  C          0.24805000       0.20606830       0.05225000
   124  C          0.75195000       0.70606830       0.44775000
   125  H          0.71860000       0.78090000       0.87450000
   126  H          0.28140000       0.28090000       0.62550000
   127  H          0.28140000       0.21910000       0.12550000
   128  H          0.71860000       0.71910000       0.37450000
   129  C          0.65914000       0.82821190       0.98795000
   130  C          0.34086000       0.32821190       0.51205000
   131  C          0.34086000       0.17178810       0.01205000
   132  C          0.65914000       0.67178810       0.48795000
   133  H          0.56090000       0.83830000       0.94350000
   134  H          0.43910000       0.33830000       0.55650000
   135  H          0.43910000       0.16170000       0.05650000
   136  H          0.56090000       0.66170000       0.44350000
   137  C          0.71224000       0.84743180       0.09386000
   138  C          0.28776000       0.34743180       0.40614000
   139  C          0.28776000       0.15256820       0.90614000
   140  C          0.71224000       0.65256820       0.59386000
   141  H          0.65150000       0.87180000       0.12050000
   142  H          0.34850000       0.37180000       0.37950000
   143  H          0.34850000       0.12820000       0.87950000
   144  H          0.65150000       0.62820000       0.62050000
   145  C          0.84964000       0.83236170       0.16055000
   146  C          0.15036000       0.33236170       0.33945000
   147  C          0.15036000       0.16763830       0.83945000
   148  C          0.84964000       0.66763830       0.66055000
   149  H          0.88190000       0.84540000       0.23400000
   150  H          0.11810000       0.34540000       0.26600000
   151  H          0.11810000       0.15460000       0.76600000
   152  H          0.88190000       0.65460000       0.73400000
   153  C          0.94224000       0.79818160       0.12145000
   154  C          0.05776000       0.29818160       0.37855000
   155  C          0.05776000       0.20181840       0.87855000
   156  C          0.94224000       0.70181840       0.62145000
   157  H          0.03920000       0.78800000       0.16750000
   158  H          0.96080000       0.28800000       0.33250000
   159  H          0.96080000       0.21200000       0.83250000
   160  H          0.03920000       0.71200000       0.66750000
   161  C          0.35645000       0.71747170       0.94546000
   162  C          0.64355000       0.21747170       0.55454000
   163  C          0.64355000       0.28252830       0.05454000
   164  C          0.35645000       0.78252830       0.44546000
   165  H          0.46920000       0.72220000       0.98220000
   166  H          0.53080000       0.22220000       0.51780000
   167  H          0.53080000       0.27780000       0.01780000
   168  H          0.46920000       0.77780000       0.48220000
   169  H          0.31520000       0.74830000       0.91270000
   170  H          0.68480000       0.24830000       0.58730000
   171  H          0.68480000       0.25170000       0.08730000
   172  H          0.31520000       0.75170000       0.41270000
   173  C          0.34996000       0.68171190       0.85145000
   174  C          0.65004000       0.18171190       0.64855000
   175  C          0.65004000       0.31828810       0.14855000
   176  C          0.34996000       0.81828810       0.35145000
   177  H          0.23690000       0.67420000       0.82010000
   178  H          0.76310000       0.17420000       0.67990000
   179  H          0.76310000       0.32580000       0.17990000
   180  H          0.23690000       0.82580000       0.32010000
   181  H          0.40270000       0.65200000       0.88260000
   182  H          0.59730000       0.15200000       0.61740000
   183  H          0.59730000       0.34800000       0.11740000
   184  H          0.40270000       0.84800000       0.38260000
   185  C          0.43198000       0.69993000       0.75594000
   186  C          0.56802000       0.19993000       0.74406000
   187  C          0.56802000       0.30007000       0.24406000
   188  C          0.43198000       0.80007000       0.25594000
   189  H          0.38470000       0.73040000       0.72820000
   190  H          0.61530000       0.23040000       0.77180000
   191  H          0.61530000       0.26960000       0.27180000
   192  H          0.38470000       0.76960000       0.22820000
   193  H          0.41700000       0.67680000       0.69410000
   194  H          0.58300000       0.17680000       0.80590000
   195  H          0.58300000       0.32320000       0.30590000
   196  H          0.41700000       0.82320000       0.19410000
   197  H          0.54640000       0.70420000       0.78490000
   198  H          0.45360000       0.20420000       0.71510000
   199  H          0.45360000       0.29580000       0.21510000
   200  H          0.54640000       0.79580000       0.28490000
   201  Cl         0.38008190       0.54777500       0.60930140
   202  Cl         0.61991810       0.04777500       0.89069860
   203  Cl         0.61991810       0.45222500       0.39069860
   204  Cl         0.38008190       0.95222500       0.10930140
   205  N          0.32524000       0.67561140       0.12274000
   206  N          0.67476000       0.17561140       0.37726000
   207  N          0.67476000       0.32438860       0.87726000
   208  N          0.32524000       0.82438860       0.62274000
   209  N          0.93026000       0.68975150       0.18234000
   210  N          0.06974000       0.18975150       0.31766000
   211  N          0.06974000       0.31024850       0.81766000
   212  N          0.93026000       0.81024850       0.68234000
   213  O          0.66197000       0.66189120       0.18413000
   214  O          0.33803000       0.16189120       0.31587000
   215  O          0.33803000       0.33810880       0.81587000
   216  O          0.66197000       0.83810880       0.68413000
   217  O          0.77666000       0.65272120       0.01023000
   218  O          0.22334000       0.15272120       0.48977000
   219  O          0.22334000       0.34727880      -0.01023000
   220  O          0.77666000       0.84727880       0.51023000
   221  O         -0.00184000       0.74481110       0.86517000
   222  O          0.00184000       0.24481110       0.63483000
   223  O          0.00184000       0.25518890       0.13483000
   224  O         -0.00184000       0.75518890       0.36517000
   225  S          0.79598870       0.65197400       0.13012110
   226  S          0.20401130       0.15197400       0.36987890
   227  S          0.20401130       0.34802600       0.86987890
   228  S          0.79598870       0.84802600       0.63012110
   229  H          0.42460000       0.66521600       0.13940000
   230  H          0.57540000       0.16521600       0.36060000
   231  H          0.57540000       0.33478400       0.86060000
   232  H          0.42460000       0.83478400       0.63940000
   233  H          0.92450000       0.70341500       0.23240000
   234  H          0.07550000       0.20341500       0.26760000
   235  H          0.07550000       0.29658500       0.76760000
   236  H          0.92450000       0.79658500       0.73240000
   237  C          0.47331500       0.50554000       0.09501400
   238  C          0.52668500       0.00554000       0.40498600
   239  C          0.52668500       0.49446000       0.90498600
   240  C          0.47331500       0.99446000       0.59501400
   241  H          0.57540000       0.51760000       0.13850000
   242  H          0.42460000       0.01760000       0.36150000
   243  H          0.42460000       0.48240000       0.86150000
   244  H          0.57540000       0.98240000       0.63850000
   245  H          0.39850000       0.50480000       0.14910000
   246  H          0.60150000       0.00480000       0.35090000
   247  H          0.60150000       0.49520000       0.85090000
   248  H          0.39850000      -0.00480000       0.64910000
   249  C          0.41071800       0.54694000       0.01371200
   250  C          0.58928200       0.04694000       0.48628800
   251  C          0.58928200       0.45306000       0.98628800
   252  C          0.41071800       0.95306000       0.51371200
   253  H          0.29370000       0.54470000       0.98720000
   254  H          0.70630000       0.04470000       0.51280000
   255  H          0.70630000       0.45530000       0.01280000
   256  H          0.29370000       0.95530000       0.48720000
   257  H          0.43680000       0.57810000       0.05010000
   258  H          0.56320000       0.07810000       0.44990000
   259  H          0.56320000       0.42190000       0.94990000
   260  H          0.43680000       0.92190000       0.55010000
   261  C          0.49830000       0.53916000       0.92118800
   262  C          0.50170000       0.03916000       0.57881200
   263  C          0.50170000       0.46084000       0.07881200
   264  C          0.49830000       0.96084000       0.42118800
   265  H          0.43480000       0.55240000       0.85080000
   266  H          0.56520000       0.05240000       0.64920000
   267  H          0.56520000       0.44760000       0.14920000
   268  H          0.43480000       0.94760000       0.35080000
   269  H          0.60050000       0.55650000       0.93780000
   270  H          0.39950000       0.05650000       0.56220000
   271  H          0.39950000       0.44350000       0.06220000
   272  H          0.60050000       0.94350000       0.43780000
