data_HURNAJ
_symmetry_space_group_name_H-M    'P1'
_symmetry_Int_Tables_number       1
loop_
_symmetry_equiv_pos_site_id
_symmetry_equiv_pos_as_xyz
1 x,y,z
_cell_length_a                   8.1352
_cell_length_b                   12.0113
_cell_length_c                   12.0482
_cell_angle_alpha                79.861
_cell_angle_beta                 89.4865
_cell_angle_gamma                78.1466
loop_
_atom_site_label
_atom_site_type_symbol
_atom_site_fract_x
_atom_site_fract_y
_atom_site_fract_z
     1  Cl         0.81126900       0.02073600       0.31735500
     2  Cl         0.18873100       0.97926400       0.68264500
     3  N          0.85777000       0.63858000       0.11282000
     4  N          0.14223000       0.36142000       0.88718000
     5  N          0.14844000       0.75608000       0.35112000
     6  N          0.85156000       0.24392000       0.64888000
     7  C          0.00093000       0.89888000       0.07952000
     8  C         -0.00093000       0.10112000       0.92048000
     9  C          0.07953000       0.98818000       0.10592000
    10  C          0.92047000       0.01182000       0.89408000
    11  C          0.92107000       0.91568000       0.96942000
    12  C          0.07893000       0.08432000       0.03058000
    13  C          0.00163000       0.79968000       0.15522000
    14  C         -0.00163000       0.20032000       0.84478000
    15  C          0.92157000       0.71038000       0.13022000
    16  C          0.07843000       0.28962000       0.86978000
    17  C          0.08184000       0.77778000       0.26462000
    18  C          0.91816000       0.22222000       0.73538000
    19  H          0.13283000       0.98038000       0.18942000
    20  H          0.86717000       0.01962000       0.81058000
    21  H          0.86127000       0.84418000       0.94512000
    22  H          0.13873000       0.15582000       0.05488000
    23  N          0.39613000       0.91418000       0.92162000
    24  N          0.60387000       0.08582000       0.07838000
    25  N          0.50573000       0.86718000       0.10292000
    26  N          0.49427000       0.13282000       0.89708000
    27  C          0.47833000       0.94418000       0.00742000
    28  C          0.52167000       0.05582000      -0.00742000
    29  C          0.37133000       0.80428000       0.96412000
    30  C          0.62867000       0.19572000       0.03588000
    31  C          0.29664000       0.73017000       0.91552000
    32  C          0.70336000       0.26983000       0.08448000
    33  C          0.29404000       0.62467000       0.98023000
    34  C          0.70596000       0.37533000       0.01977000
    35  C          0.36164000       0.59517000       0.09113000
    36  C          0.63836000       0.40483000       0.90887000
    37  C          0.43253000       0.67028000       0.13812000
    38  C          0.56747000       0.32972000       0.86188000
    39  C          0.43883000       0.77738000       0.07422000
    40  C          0.56117000       0.22262000       0.92578000
    41  H          0.38753000       0.95328000       0.84212000
    42  H          0.61247000       0.04672000       0.15788000
    43  H          0.35794000       0.51497000       0.14323000
    44  H          0.64206000       0.48503000       0.85677000
    45  H          0.46793000       0.65308000       0.23242000
    46  H          0.53207000       0.34692000       0.76758000
    47  H          0.24604000       0.57017000       0.95033000
    48  H          0.75396000       0.42983000       0.04967000
    49  H          0.24864000       0.75187000       0.84132000
    50  H          0.75136000       0.24813000       0.15868000
    51  N          0.80273000       0.91518000       0.57182000
    52  N          0.19727000       0.08482000       0.42818000
    53  N          0.60183000       0.14882000       0.48202000
    54  N          0.39817000       0.85118000       0.51798000
    55  N          0.49083000       0.15592000       0.64672000
    56  N          0.50917000       0.84408000       0.35328000
    57  N          0.65083000       0.91918000       0.72842000
    58  N          0.34917000       0.08082000       0.27158000
    59  C          0.68273000       0.97548000       0.62862000
    60  C          0.31727000       0.02452000       0.37138000
    61  C          0.59453000       0.09072000       0.58602000
    62  C          0.40547000       0.90928000       0.41398000
    63  C          0.49903000       0.25692000       0.47412000
    64  C          0.50097000       0.74308000       0.52588000
    65  C          0.46374000       0.34952000       0.38612000
    66  C          0.53626000       0.65048000       0.61388000
    67  C          0.35284000       0.44492000       0.40632000
    68  C          0.64716000       0.55508000       0.59368000
    69  C          0.27784000       0.44863000       0.51173000
    70  C          0.72216000       0.55137000       0.48827000
    71  C          0.31314000       0.35802000       0.59912000
    72  C          0.68686000       0.64198000       0.40088000
    73  C          0.90734000       0.62638000       0.81482000
    74  C          0.09266000       0.37362000       0.18518000
    75  C          0.76093000       0.81428000       0.73802000
    76  C          0.23907000       0.18572000       0.26198000
    77  C          0.78414000       0.71888000       0.82532000
    78  C          0.21586000       0.28112000       0.17468000
    79  C          0.42753000       0.26082000       0.57912000
    80  C          0.57247000       0.73918000       0.42088000
    81  C          0.00794000       0.62528000       0.71883000
    82  C         -0.00794000       0.37472000       0.28117000
    83  C          0.98394000       0.71658000       0.62943000
    84  C          0.01606000       0.28342000       0.37057000
    85  C          0.85793000       0.81048000       0.64112000
    86  C          0.14207000       0.18952000       0.35888000
    87  H          0.83053000       0.93988000       0.49752000
    88  H          0.16947000       0.06012000       0.50248000
    89  H          0.66313000       0.12362000       0.42612000
    90  H          0.33687000       0.87638000       0.57388000
    91  H          0.47653000       0.13742000       0.72202000
    92  H          0.52347000       0.86258000       0.27798000
    93  H          0.33474000       0.51632000       0.34522000
    94  H          0.66526000       0.48368000       0.65478000
    95  H          0.19984000       0.52463000       0.51003000
    96  H          0.80016000       0.47537000       0.48997000
    97  H          0.27004000       0.36012000       0.67672000
    98  H          0.72996000       0.63988000       0.32328000
    99  H          0.92214000       0.55888000       0.87462000
   100  H          0.07786000       0.44112000       0.12538000
   101  H          0.70484000       0.72598000       0.89872000
   102  H          0.29516000       0.27402000       0.10128000
   103  H          0.10924000       0.54678000       0.71703000
   104  H          0.89076000       0.45322000       0.28297000
   105  H          0.05744000       0.71078000       0.56223000
   106  H          0.94256000       0.28922000       0.43777000
   107  H          0.51464000       0.34582000       0.31512000
   108  H          0.48536000       0.65418000       0.68488000
