data_HURYIC
_symmetry_space_group_name_H-M    'P1'
_symmetry_Int_Tables_number       1
loop_
_symmetry_equiv_pos_site_id
_symmetry_equiv_pos_as_xyz
1 x,y,z
_cell_length_a                   22.1843
_cell_length_b                   6.87101
_cell_length_c                   12.06301
_cell_angle_alpha                90.0
_cell_angle_beta                 94.3901
_cell_angle_gamma                90.0
loop_
_atom_site_label
_atom_site_type_symbol
_atom_site_fract_x
_atom_site_fract_y
_atom_site_fract_z
     1  S          0.43689618       0.64294600       0.88150300
     2  S          0.93689618       0.14294600       0.88150300
     3  S          0.56310382       0.64294600       0.61849700
     4  S          0.06310382       0.14294600       0.61849700
     5  S          0.56310382       0.35705400       0.11849700
     6  S          0.06310382       0.85705400       0.11849700
     7  S          0.43689618       0.35705400       0.38150300
     8  S          0.93689618       0.85705400       0.38150300
     9  S          0.41735118       0.65213600       0.63720300
    10  S          0.91735118       0.15213600       0.63720300
    11  S          0.58264882       0.65213600       0.86279700
    12  S          0.08264882       0.15213600       0.86279700
    13  S          0.58264882       0.34786400       0.36279700
    14  S          0.08264882       0.84786400       0.36279700
    15  S          0.41735118       0.34786400       0.13720300
    16  S          0.91735118       0.84786400       0.13720300
    17  C          0.46993700       0.64912000       0.75366120
    18  C          0.96993700       0.14912000       0.75366120
    19  C          0.53006300       0.64912000       0.74633880
    20  C          0.03006300       0.14912000       0.74633880
    21  C          0.53006300       0.35088000       0.24633880
    22  C          0.03006300       0.85088000       0.24633880
    23  C          0.46993700       0.35088000       0.25366120
    24  C          0.96993700       0.85088000       0.25366120
    25  C          0.36254700       0.68862000       0.82505130
    26  C          0.86254700       0.18862000       0.82505130
    27  C          0.63745300       0.68862000       0.67494870
    28  C          0.13745300       0.18862000       0.67494870
    29  C          0.63745300       0.31138000       0.17494870
    30  C          0.13745300       0.81138000       0.17494870
    31  C          0.36254700       0.31138000       0.32505130
    32  C          0.86254700       0.81138000       0.32505130
    33  C          0.35381700       0.69362000       0.71328130
    34  C          0.85381700       0.19362000       0.71328130
    35  C          0.64618300       0.69362000       0.78671870
    36  C          0.14618300       0.19362000       0.78671870
    37  C          0.64618300       0.30638000       0.28671870
    38  C          0.14618300       0.80638000       0.28671870
    39  C          0.35381700       0.30638000       0.21328130
    40  C          0.85381700       0.80638000       0.21328130
    41  C          0.31584800       0.70963000       0.90734160
    42  C          0.81584800       0.20963000       0.90734160
    43  C          0.68415200       0.70963000       0.59265840
    44  C          0.18415200       0.20963000       0.59265840
    45  C          0.68415200       0.29037000       0.09265840
    46  C          0.18415200       0.79037000       0.09265840
    47  C          0.31584800       0.29037000       0.40734160
    48  C          0.81584800       0.79037000       0.40734160
    49  H          0.27521200       0.72640000       0.87120000
    50  H          0.77521200       0.22640000       0.87120000
    51  H          0.72478800       0.72640000       0.62880000
    52  H          0.22478800       0.22640000       0.62880000
    53  H          0.72478800       0.27360000       0.12880000
    54  H          0.22478800       0.77360000       0.12880000
    55  H          0.27521200       0.27360000       0.37120000
    56  H          0.77521200       0.77360000       0.37120000
    57  H          0.32331300       0.82040000       0.95020000
    58  H          0.82331300       0.32040000       0.95020000
    59  H          0.67668700       0.82040000       0.54980000
    60  H          0.17668700       0.32040000       0.54980000
    61  H          0.67668700       0.17960000       0.04980000
    62  H          0.17668700       0.67960000       0.04980000
    63  H          0.32331300       0.17960000       0.45020000
    64  H          0.82331300       0.67960000       0.45020000
    65  H          0.31651300       0.60240000       0.95620000
    66  H          0.81651300       0.10240000       0.95620000
    67  H          0.68348700       0.60240000       0.54380000
    68  H          0.18348700       0.10240000       0.54380000
    69  H          0.68348700       0.39760000       0.04380000
    70  H          0.18348700       0.89760000       0.04380000
    71  H          0.31651300       0.39760000       0.45620000
    72  H          0.81651300       0.89760000       0.45620000
    73  C          0.29514800       0.72413000       0.64547160
    74  C          0.79514800       0.22413000       0.64547160
    75  C          0.70485200       0.72413000       0.85452840
    76  C          0.20485200       0.22413000       0.85452840
    77  C          0.70485200       0.27587000       0.35452840
    78  C          0.20485200       0.77587000       0.35452840
    79  C          0.29514800       0.27587000       0.14547160
    80  C          0.79514800       0.77587000       0.14547160
    81  H          0.29781400       0.82040000       0.58830000
    82  H          0.79781400       0.32040000       0.58830000
    83  H          0.70218600       0.82040000       0.91170000
    84  H          0.20218600       0.32040000       0.91170000
    85  H          0.70218600       0.17960000       0.41170000
    86  H          0.20218600       0.67960000       0.41170000
    87  H          0.29781400       0.17960000       0.08830000
    88  H          0.79781400       0.67960000       0.08830000
    89  H          0.26661300       0.77140000       0.69120000
    90  H          0.76661300       0.27140000       0.69120000
    91  H          0.73338700       0.77140000       0.80880000
    92  H          0.23338700       0.27140000       0.80880000
    93  H          0.73338700       0.22860000       0.30880000
    94  H          0.23338700       0.72860000       0.30880000
    95  H          0.26661300       0.22860000       0.19120000
    96  H          0.76661300       0.72860000       0.19120000
    97  H          0.28221500       0.61050000       0.61130000
    98  H          0.78221500       0.11050000       0.61130000
    99  H          0.71778500       0.61050000       0.88870000
   100  H          0.21778500       0.11050000       0.88870000
   101  H          0.71778500       0.38950000       0.38870000
   102  H          0.21778500       0.88950000       0.38870000
   103  H          0.28221500       0.38950000       0.11130000
   104  H          0.78221500       0.88950000       0.11130000
   105  O          0.36077600       0.16522000       0.88045110
   106  O          0.86077600       0.66522000       0.88045110
   107  O          0.63922400       0.16522000       0.61954890
   108  O          0.13922400       0.66522000       0.61954890
   109  O          0.63922400       0.83478000       0.11954890
   110  O          0.13922400       0.33478000       0.11954890
   111  O          0.36077600       0.83478000       0.38045110
   112  O          0.86077600       0.33478000       0.38045110
   113  O          0.33972600       0.18092000       0.70214110
   114  O          0.83972600       0.68092000       0.70214110
   115  O          0.66027400       0.18092000       0.79785890
   116  O          0.16027400       0.68092000       0.79785890
   117  O          0.66027400       0.81908000       0.29785890
   118  O          0.16027400       0.31908000       0.29785890
   119  O          0.33972600       0.81908000       0.20214110
   120  O          0.83972600       0.31908000       0.20214110
   121  N          0.37545700       0.16502000       0.78422120
   122  N          0.87545700       0.66502000       0.78422120
   123  N          0.62454300       0.16502000       0.71577880
   124  N          0.12454300       0.66502000       0.71577880
   125  N          0.62454300       0.83498000       0.21577880
   126  N          0.12454300       0.33498000       0.21577880
   127  N          0.37545700       0.83498000       0.28422120
   128  N          0.87545700       0.33498000       0.28422120
   129  C          0.44049700       0.14882000       0.76664130
   130  C          0.94049700       0.64882000       0.76664130
   131  C          0.55950300       0.14882000       0.73335870
   132  C          0.05950300       0.64882000       0.73335870
   133  C          0.55950300       0.85118000       0.23335870
   134  C          0.05950300       0.35118000       0.23335870
   135  C          0.44049700       0.85118000       0.26664130
   136  C          0.94049700       0.35118000       0.26664130
   137  C          0.45733700       0.14582000       0.65814130
   138  C          0.95733700       0.64582000       0.65814130
   139  C          0.54266300       0.14582000       0.84185870
   140  C          0.04266300       0.64582000       0.84185870
   141  C          0.54266300       0.85418000       0.34185870
   142  C          0.04266300       0.35418000       0.34185870
   143  C          0.45733700       0.85418000       0.15814130
   144  C          0.95733700       0.35418000       0.15814130
   145  H          0.42799000       0.14530000       0.59631700
   146  H          0.92799000       0.64530000       0.59631700
   147  H          0.57201000       0.14530000       0.90368300
   148  H          0.07201000       0.64530000       0.90368300
   149  H          0.57201000       0.85470000       0.40368300
   150  H          0.07201000       0.35470000       0.40368300
   151  H          0.42799000       0.85470000       0.09631700
   152  H          0.92799000       0.35470000       0.09631700
   153  C          0.48162800       0.14642000       0.85891130
   154  C          0.98162800       0.64642000       0.85891130
   155  C          0.51837200       0.14642000       0.64108870
   156  C          0.01837200       0.64642000       0.64108870
   157  C          0.51837200       0.85358000       0.14108870
   158  C          0.01837200       0.35358000       0.14108870
   159  C          0.48162800       0.85358000       0.35891130
   160  C          0.98162800       0.35358000       0.35891130
   161  H          0.46909000       0.14930000       0.92951700
   162  H          0.96909000       0.64930000       0.92951700
   163  H          0.53091000       0.14930000       0.57048300
   164  H          0.03091000       0.64930000       0.57048300
   165  H          0.53091000       0.85070000       0.07048300
   166  H          0.03091000       0.35070000       0.07048300
   167  H          0.46909000       0.85070000       0.42951700
   168  H          0.96909000       0.35070000       0.42951700
