data_HUTYOM
_symmetry_space_group_name_H-M    'P1'
_symmetry_Int_Tables_number       1
loop_
_symmetry_equiv_pos_site_id
_symmetry_equiv_pos_as_xyz
1 x,y,z
_cell_length_a                   8.5934
_cell_length_b                   6.0403
_cell_length_c                   18.4001
_cell_angle_alpha                90.0
_cell_angle_beta                 90.592
_cell_angle_gamma                90.0
loop_
_atom_site_label
_atom_site_type_symbol
_atom_site_fract_x
_atom_site_fract_y
_atom_site_fract_z
     1  C          0.42233000       0.81403000       0.51924130
     2  C          0.57767000       0.31403000       0.98075870
     3  C          0.57767000       0.18597000       0.48075870
     4  C          0.42233000       0.68597000       0.01924130
     5  C          0.43122000       0.86323000       0.44575120
     6  C          0.56878000       0.36323000       0.05424880
     7  C          0.56878000       0.13677000       0.55424880
     8  C          0.43122000       0.63677000       0.94575120
     9  C          0.51153000       0.05414000       0.42795120
    10  C          0.48847000       0.55414000       0.07204880
    11  C          0.48847000       0.94586000       0.57204880
    12  C          0.51153000       0.44586000       0.92795120
    13  F          0.52692000       0.11343000       0.35816800
    14  F          0.47308000       0.61343000       0.14183200
    15  F          0.47308000       0.88657000       0.64183200
    16  F          0.52692000       0.38657000       0.85816800
    17  F          0.34472000       0.63132000       0.54026900
    18  F          0.65528000       0.13132000       0.95973100
    19  F          0.65528000       0.36868000       0.45973100
    20  F          0.34472000       0.86868000       0.04026900
    21  I          0.32604916       0.66235200       0.36643680
    22  I          0.67395084       0.16235200       0.13356320
    23  I          0.67395084       0.33764800       0.63356320
    24  I          0.32604916       0.83764800       0.86643680
    25  C          0.11973000       0.50805000       0.19925130
    26  C          0.88027000       0.00805000       0.30074870
    27  C          0.88027000       0.49195000       0.80074870
    28  C          0.11973000      -0.00805000       0.69925130
    29  H          0.07750000       0.65310000       0.20190000
    30  H          0.92250000       0.15310000       0.29810000
    31  H          0.92250000       0.34690000       0.79810000
    32  H          0.07750000       0.84690000       0.70190000
    33  C          0.23173000       0.20605000       0.22721150
    34  C          0.76827000       0.70605000       0.27278850
    35  C          0.76827000       0.79395000       0.77278850
    36  C          0.23173000       0.29395000       0.72721150
    37  H          0.28520000       0.09540000       0.25430000
    38  H          0.71480000       0.59540000       0.24570000
    39  H          0.71480000       0.90460000       0.74570000
    40  H          0.28520000       0.40460000       0.75430000
    41  C          0.18934000       0.18794000       0.15716160
    42  C          0.81066000       0.68794000       0.34283840
    43  C          0.81066000       0.81206000       0.84283840
    44  C          0.18934000       0.31206000       0.65716160
    45  H          0.20600000       0.06380000       0.12650000
    46  H          0.79400000       0.56380000       0.37350000
    47  H          0.79400000       0.93620000       0.87350000
    48  H          0.20600000       0.43620000       0.62650000
    49  C          0.05692000       0.44224000       0.06812110
    50  C          0.94308000       0.94224000       0.43187890
    51  C          0.94308000       0.55776000       0.93187890
    52  C          0.05692000       0.05776000       0.56812110
    53  C          0.95627000       0.61944000       0.06080120
    54  C          0.04373000       0.11944000       0.43919880
    55  C          0.04373000       0.38056000       0.93919880
    56  C          0.95627000       0.88056000       0.56080120
    57  H          0.92660000       0.70180000       0.10240000
    58  H          0.07340000       0.20180000       0.39760000
    59  H          0.07340000       0.29820000       0.89760000
    60  H          0.92660000       0.79820000       0.60240000
    61  C          0.89887000       0.67694000      -0.00727140
    62  C          0.10113000       0.17694000       0.50727140
    63  C          0.10113000       0.32306000       0.00727140
    64  C          0.89887000       0.82306000       0.49272860
    65  H          0.82910000       0.79810000       0.98770000
    66  H          0.17090000       0.29810000       0.51230000
    67  H          0.17090000       0.20190000       0.01230000
    68  H          0.82910000       0.70190000       0.48770000
    69  N          0.18663000       0.40724000       0.25392120
    70  N          0.81337000       0.90724000       0.24607880
    71  N          0.81337000       0.59276000       0.74607880
    72  N          0.18663000       0.09276000       0.75392120
    73  N          0.11722000       0.38243000       0.13820100
    74  N          0.88278000       0.88243000       0.36179900
    75  N          0.88278000       0.61757000       0.86179900
    76  N          0.11722000       0.11757000       0.63820100
