data_HUTZAA
_symmetry_space_group_name_H-M    'P1'
_symmetry_Int_Tables_number       1
loop_
_symmetry_equiv_pos_site_id
_symmetry_equiv_pos_as_xyz
1 x,y,z
_cell_length_a                   7.76897
_cell_length_b                   12.34811
_cell_length_c                   17.692917
_cell_angle_alpha                106.9153
_cell_angle_beta                 90.2174
_cell_angle_gamma                92.5143
loop_
_atom_site_label
_atom_site_type_symbol
_atom_site_fract_x
_atom_site_fract_y
_atom_site_fract_z
     1  P          0.55082600       0.73155400       0.26829300
     2  P          0.44917400       0.26844600       0.73170700
     3  O          0.72977170       0.77488120       0.26119800
     4  O          0.27022830       0.22511880       0.73880200
     5  S          0.41388800       0.76362500       0.62938300
     6  S          0.58611200       0.23637500       0.37061700
     7  C          0.49662000       0.73516150       0.36828110
     8  C          0.50338000       0.26483850       0.63171890
     9  S          0.47527700       0.22474400       0.04139300
    10  S          0.52472300       0.77525600       0.95860700
    11  C          0.40902000       0.82523160       0.41667110
    12  C          0.59098000       0.17476840       0.58332890
    13  H          0.36632800       0.88116700       0.39522200
    14  H          0.63367200       0.11883300       0.60477800
    15  F          0.45392000       0.89595130       0.65471800
    16  F          0.54608000       0.10404870       0.34528200
    17  S          0.00745700       0.02137400       0.15136300
    18  S         -0.00745700       0.97862600       0.84863700
    19  C          0.38363000       0.83387170       0.49577120
    20  C          0.61637000       0.16612830       0.50422880
    21  H          0.32340300       0.89502300       0.52848500
    22  H          0.67659700       0.10497700       0.47151500
    23  F          0.61052000       0.74432160       0.64246900
    24  F          0.38948000       0.25567840       0.35753100
    25  C          0.44712000       0.75224170       0.52621110
    26  C          0.55288000       0.24775830       0.47378890
    27  F          0.37172000       0.63167120       0.61029800
    28  F          0.62828000       0.36832880       0.38970200
    29  F          0.21600180       0.78326120       0.62216800
    30  F          0.78399820       0.21673880       0.37783200
    31  C          0.53532000       0.66209160       0.47965120
    32  C          0.46468000       0.33790840       0.52034880
    33  H          0.57860900       0.60683300       0.50159300
    34  H          0.42139100       0.39316700       0.49840700
    35  F          0.38492000       0.77308150       0.71921800
    36  F          0.61508000       0.22691850       0.28078200
    37  C          0.55942000       0.65389160       0.40066110
    38  C          0.44058000       0.34610840       0.59933890
    39  H          0.61920800       0.59234300       0.36819800
    40  H          0.38079200       0.40765700       0.63180200
    41  F          0.44092000       0.26765100       0.96657300
    42  F          0.55908000       0.73234900       0.03342700
    43  C          0.51562000       0.58660150       0.20744110
    44  C          0.48438000       0.41339850       0.79255890
    45  F          0.50796170       0.17342100       0.11225700
    46  F          0.49203830       0.82657900       0.88774300
    47  C          0.39952000       0.39397160       0.17668110
    48  C          0.60048000       0.60602840       0.82331890
    49  H          0.33047900       0.33715800       0.19019100
    50  H          0.66952100       0.66284200       0.80980900
    51  F          0.27423170       0.21385100       0.05306800
    52  F          0.72576830       0.78614900       0.94693200
    53  C          0.41132000       0.50442160       0.22679110
    54  C          0.58868000       0.49557840       0.77320890
    55  H          0.34800800       0.52370000       0.27430800
    56  H          0.65199200       0.47630000       0.72569200
    57  F          0.67495180       0.22622110       0.02545800
    58  F          0.32504820       0.77377890       0.97454200
    59  C          0.49002000       0.36812150       0.10672110
    60  C          0.50998000       0.63187850       0.89327890
    61  F          0.46142000       0.09988100       0.98430200
    62  F          0.53858000       0.90011900       0.01569800
    63  C          0.59103000       0.44960160       0.08547110
    64  C          0.40897000       0.55039840       0.91452890
    65  H          0.65017000       0.43095300       0.03681200
    66  H          0.34983000       0.56904700       0.96318800
    67  F          0.90016820       0.04130120       0.22995800
    68  F          0.09983180       0.95869880       0.77004200
    69  C          0.60402000       0.55855160       0.13638110
    70  C          0.39598000       0.44144840       0.86361890
    71  H          0.67392000       0.61491100       0.12278700
    72  H          0.32608000       0.38508900       0.87721300
    73  F          0.11844190       0.13560100       0.19002900
    74  F          0.88155810       0.86439900       0.80997100
    75  C          0.39312000       0.81234150       0.23634110
    76  C          0.60688000       0.18765850       0.76365890
    77  F          0.10465180       0.00660120       0.07116800
    78  F          0.89534820      -0.00660120       0.92883200
    79  C          0.21682000       0.79068160       0.24216110
    80  C          0.78318000       0.20931840       0.75783890
    81  H          0.17752600       0.73214800       0.26370600
    82  H          0.82247400       0.26785200       0.73629400
    83  F          0.88630830       0.91314120       0.11083800
    84  F          0.11369170       0.08685880       0.88916200
    85  C          0.09812000       0.85394170       0.21673110
    86  C          0.90188000       0.14605830       0.78326890
    87  H          0.97783400       0.84000000       0.22104000
    88  H          0.02216600       0.16000000       0.77896000
    89  F          0.87478810       0.09441130       0.12248100
    90  F          0.12521190       0.90558870       0.87751900
    91  C          0.15982000       0.93823160       0.18480110
    92  C          0.84018000       0.06176840       0.81519890
    93  C          0.33433000       0.96035160       0.17776120
    94  C          0.66567000       0.03964840       0.82223880
    95  H          0.37321800       0.01814600       0.15544600
    96  H          0.62678200       0.98185400       0.84455400
    97  C          0.45192000       0.89668160       0.20387110
    98  C          0.54808000       0.10331840       0.79612890
    99  H          0.57205200       0.91083100       0.19950700
   100  H          0.42794800       0.08916900       0.80049300
   101  C          0.93263000       0.94191190       0.42605140
   102  C          0.06737000       0.05808810       0.57394860
   103  H          0.88625600       0.90192700       0.37535500
   104  H          0.11374400       0.09807300       0.62464500
   105  C          0.05023000       0.03272000       0.43438140
   106  C          0.94977000       0.96728000       0.56561860
   107  H          0.08482500       0.05519100       0.38953900
   108  H          0.91517500       0.94480900       0.61046100
   109  C          0.11663000       0.09009190       0.50867150
   110  C          0.88337000       0.90990810       0.49132850
   111  H          0.19714300       0.15229000       0.51462900
   112  H          0.80285700       0.84771000       0.48537100
   113  C          0.06623000       0.54752000       0.07527140
   114  C          0.93377000       0.45248000       0.92472860
   115  H          0.11246800       0.58001900       0.12712300
   116  H          0.88753200       0.41998100       0.87287700
   117  C          0.05113000       0.43142000       0.04381150
   118  C          0.94887000       0.56858000       0.95618850
   119  H          0.08607800       0.38408100       0.07430400
   120  H          0.91392200       0.61591900       0.92569600
   121  C         -0.01423000       0.38372000       0.96854850
   122  C          0.01423000       0.61628000       0.03145150
   123  H          0.97658500       0.30362400       0.94685600
   124  H          0.02341500       0.69637600       0.05314400
   125  C          0.97476000       0.42173000       0.26980190
   126  C          0.02524000       0.57827000       0.73019810
   127  H          0.94263300       0.36736800       0.22109500
   128  H          0.05736700       0.63263200       0.77890500
   129  C          0.04874000       0.38862000       0.32742000
   130  C          0.95126000       0.61138000       0.67258000
   131  H          0.06861200       0.31074500       0.31947600
   132  H          0.93138800       0.68925500       0.68052400
   133  C          0.09504000       0.46544000       0.39672000
   134  C          0.90496000       0.53456000       0.60328000
   135  H          0.14740300       0.44164900       0.43748300
   136  H          0.85259700       0.55835100       0.56251700
   137  C          0.06613000       0.57833000       0.40812180
   138  C          0.93387000       0.42167000       0.59187820
   139  H          0.09864500       0.63296100       0.45662000
   140  H          0.90135500       0.36703900       0.54338000
   141  C         -0.00964000       0.61052000       0.34902000
   142  C          0.00964000       0.38948000       0.65098000
   143  H          0.96915700       0.68802100       0.35605900
   144  H          0.03084300       0.31197900       0.64394100
   145  C          0.94587000       0.53214000       0.28088180
   146  C          0.05413000       0.46786000       0.71911820
   147  H          0.89327800       0.55475900       0.23970100
   148  H          0.10672200       0.44524100       0.76029900
