data_HUVGAI
_symmetry_space_group_name_H-M    'P1'
_symmetry_Int_Tables_number       1
loop_
_symmetry_equiv_pos_site_id
_symmetry_equiv_pos_as_xyz
1 x,y,z
_cell_length_a                   7.49617
_cell_length_b                   8.32579
_cell_length_c                   16.361812
_cell_angle_alpha                92.2177
_cell_angle_beta                 90.9927
_cell_angle_gamma                115.5491
loop_
_atom_site_label
_atom_site_type_symbol
_atom_site_fract_x
_atom_site_fract_y
_atom_site_fract_z
     1  O          0.84633000       0.18743000       0.01633100
     2  O          0.15367000       0.81257000       0.98366900
     3  O          0.73103000       0.01023000       0.65246900
     4  O          0.26897000      -0.01023000       0.34753100
     5  H          0.85000000       0.03810000       0.65170000
     6  H          0.15000000       0.96190000       0.34830000
     7  O          0.22673000      -0.01263000       0.82274100
     8  O          0.77327000       0.01263000       0.17725900
     9  H          0.19280000       0.97230000       0.87030000
    10  H          0.80720000       0.02770000       0.12970000
    11  O          0.36563000       0.96868000       0.67247900
    12  O          0.63437000       0.03132000       0.32752100
    13  H          0.28160000       0.00560000       0.67980000
    14  H          0.71840000      -0.00560000       0.32020000
    15  O          0.06743000       0.17773000       0.92894100
    16  O          0.93257000       0.82227000       0.07105900
    17  H          0.14060000       0.21300000       0.97000000
    18  H          0.85940000       0.78700000       0.03000000
    19  C          0.74714000       0.09814000       0.87533140
    20  C          0.25286000       0.90186000       0.12466860
    21  C          0.48694000       0.00823000       0.74065140
    22  C          0.51306000      -0.00823000       0.25934860
    23  C          0.55254000       0.06923000       0.88629140
    24  C          0.44746000       0.93077000       0.11370860
    25  H          0.51030000       0.08210000       0.93820000
    26  H          0.48970000       0.91790000       0.06180000
    27  C          0.81114000       0.07593000       0.79797140
    28  C          0.18886000       0.92407000       0.20202860
    29  H          0.94020000       0.09060000       0.79150000
    30  H          0.05980000       0.90940000       0.20850000
    31  C          0.42184000       0.02093000       0.81897140
    32  C          0.57816000       0.97907000       0.18102860
    33  C          0.68054000       0.03173000       0.73101130
    34  C          0.31946000       0.96827000       0.26898870
    35  C          0.88764000       0.15784000       0.94734150
    36  C          0.11236000       0.84216000       0.05265850
    37  O          0.13473000       0.52623000       0.77850100
    38  O          0.86527000       0.47377000       0.22149900
    39  O          0.12433000       0.13422000       0.65450900
    40  O          0.87567000       0.86578000       0.34549100
    41  N          0.35263000       0.42793000       0.66978110
    42  N          0.64737000       0.57207000       0.33021890
    43  N          0.37473000       0.61233000       0.87843120
    44  N          0.62527000       0.38767000       0.12156880
    45  H          0.31050000       0.65850000       0.90620000
    46  H          0.68950000       0.34150000       0.09380000
    47  O          0.61183000       0.71653000       0.97836100
    48  O          0.38817000       0.28347000       0.02163900
    49  C          0.05794000       0.25244000       0.48067140
    50  C          0.94206000       0.74756000       0.51932860
    51  H         -0.02400000       0.13100000       0.48130000
    52  H          0.02400000       0.86900000       0.51870000
    53  C          0.31914000       0.62464000       0.47690140
    54  C          0.68086000       0.37536000       0.52309860
    55  C          0.61864000       0.52074000       0.77726150
    56  C          0.38136000       0.47926000       0.22273850
    57  H          0.67840000       0.63740000       0.75450000
    58  H          0.32160000       0.36260000       0.24550000
    59  H          0.67820000       0.44850000       0.75270000
    60  H          0.32180000       0.55150000       0.24730000
    61  N          0.44654000       0.80073000       0.47625130
    62  N          0.55346000       0.19927000       0.52374870
    63  H          0.52470000       0.85230000       0.51790000
    64  H          0.47530000       0.14770000       0.48210000
    65  H          0.44890000       0.86020000       0.43410000
    66  H          0.55110000       0.13980000       0.56590000
    67  C          0.31184000       0.52413000       0.54452140
    68  C          0.68816000       0.47587000       0.45547860
    69  C          0.18694000       0.34533000       0.54613140
    70  C          0.81306000       0.65467000       0.45386860
    71  C          0.05864000       0.35204000       0.41404150
    72  C          0.94136000       0.64796000       0.58595850
    73  H         -0.02750000       0.29580000       0.36940000
    74  H          0.02750000       0.70420000       0.63060000
    75  C          0.55134000       0.63083000       0.91311140
    76  C          0.44866000       0.36917000       0.08688860
    77  C          0.42604000       0.59113000       0.62444140
    78  C          0.57396000       0.40887000       0.37555860
    79  H          0.56740000       0.63820000       0.61730000
    80  H          0.43260000       0.36180000       0.38270000
    81  H          0.39620000       0.68210000       0.65140000
    82  H          0.60380000       0.31790000       0.34860000
    83  C          0.65764000       0.53954000       0.86972140
    84  C          0.34236000       0.46046000       0.13027860
    85  H          0.61700000       0.42190000       0.89060000
    86  H          0.38300000       0.57810000       0.10940000
    87  H          0.79860000       0.60640000       0.88140000
    88  H          0.20140000       0.39360000       0.11860000
    89  C          0.18364000       0.53224000       0.41216150
    90  C          0.81636000       0.46776000       0.58783850
    91  H          0.17750000       0.59370000       0.36670000
    92  H          0.82250000       0.40630000       0.63330000
    93  C          0.21364000       0.28613000       0.62728140
    94  C          0.78636000       0.71387000       0.37271860
    95  C          0.39684000       0.43384000       0.75733140
    96  C          0.60316000       0.56616000       0.24266860
    97  H          0.34360000       0.31070000       0.77430000
    98  H          0.65640000       0.68930000       0.22570000
    99  C          0.28774000       0.52714000       0.80317140
   100  C          0.71226000       0.47286000       0.19682860
