data_HUVHAH
_symmetry_space_group_name_H-M    'P1'
_symmetry_Int_Tables_number       1
loop_
_symmetry_equiv_pos_site_id
_symmetry_equiv_pos_as_xyz
1 x,y,z
_cell_length_a                   9.3635
_cell_length_b                   21.5093
_cell_length_c                   15.8625
_cell_angle_alpha                90.0
_cell_angle_beta                 98.865
_cell_angle_gamma                90.0
loop_
_atom_site_label
_atom_site_type_symbol
_atom_site_fract_x
_atom_site_fract_y
_atom_site_fract_z
     1  N          0.41510230       0.76114110       0.22243150
     2  N          0.58489770       0.26114110       0.27756850
     3  N          0.58489770       0.23885890       0.77756850
     4  N          0.41510230       0.73885890       0.72243150
     5  N          0.31690230       0.73658110       0.16884150
     6  N          0.68309770       0.23658110       0.33115850
     7  N          0.68309770       0.26341890       0.83115850
     8  N          0.31690230       0.76341890       0.66884150
     9  N          0.25556240       0.68733110       0.20199140
    10  N          0.74443760       0.18733110       0.29800860
    11  N          0.74443760       0.31266890       0.79800860
    12  N          0.25556240       0.81266890       0.70199140
    13  N          0.15538240       0.66119110       0.14157150
    14  N          0.84461760       0.16119110       0.35842850
    15  N          0.84461760       0.33880890       0.85842850
    16  N          0.15538240       0.83880890       0.64157150
    17  N          0.09234250       0.61531110       0.16898150
    18  N          0.90765750       0.11531110       0.33101850
    19  N          0.90765750       0.38468890       0.83101850
    20  N          0.09234250       0.88468890       0.66898150
    21  N          0.72293000       0.01881130       0.08490210
    22  N          0.27707000       0.51881130       0.41509790
    23  N          0.27707000       0.98118870       0.91509790
    24  N          0.72293000       0.48118870       0.58490210
    25  N          0.60227000       0.47406140       0.87321800
    26  N          0.39773000       0.97406140       0.62678200
    27  N          0.39773000       0.52593860       0.12678200
    28  N          0.60227000       0.02593860       0.37321800
    29  N          0.08304250       0.70831110       0.34855150
    30  N          0.91695750       0.20831110       0.15144850
    31  N          0.91695750       0.29168890       0.65144850
    32  N          0.08304250       0.79168890       0.84855150
    33  C          0.47783000       0.81372130       0.18668180
    34  C          0.52217000       0.31372130       0.31331820
    35  C          0.52217000       0.18627870       0.81331820
    36  C          0.47783000       0.68627870       0.68668180
    37  C          0.59433000       0.84042140       0.23744190
    38  C          0.40567000       0.34042140       0.26255810
    39  C          0.40567000       0.15957860       0.76255810
    40  C          0.59433000       0.65957860       0.73744190
    41  C          0.65923000       0.89319150       0.21114210
    42  C          0.34077000       0.39319150       0.28885790
    43  C          0.34077000       0.10680850       0.78885790
    44  C          0.65923000       0.60680850       0.71114210
    45  C          0.60693000       0.91866140       0.13209190
    46  C          0.39307000       0.41866140       0.36790810
    47  C          0.39307000       0.08133860       0.86790810
    48  C          0.60693000       0.58133860       0.63209190
    49  C          0.49043000       0.89171140       0.08105190
    50  C          0.50957000       0.39171140       0.41894810
    51  C          0.50957000       0.10828860       0.91894810
    52  C          0.49043000       0.60828860       0.58105190
    53  C          0.42603000       0.83932140       0.10762180
    54  C          0.57397000       0.33932140       0.39237820
    55  C          0.57397000       0.16067860       0.89237820
    56  C          0.42603000       0.66067860       0.60762180
    57  C          0.67243000       0.97486150       0.10532220
    58  C          0.32757000       0.47486150       0.39467780
    59  C          0.32757000       0.02513850       0.89467780
    60  C          0.67243000       0.52513850       0.60532220
    61  C         -0.00953000       0.58794120       0.10303180
    62  C          0.00953000       0.08794120       0.39696820
    63  C          0.00953000       0.41205880       0.89696820
    64  C         -0.00953000       0.91205880       0.60303180
    65  C          0.96996000       0.60625150       0.02007210
    66  C          0.03004000       0.10625150       0.47992790
    67  C          0.03004000       0.39374850       0.97992790
    68  C          0.96996000       0.89374850       0.52007210
    69  C          0.86766000       0.57747160       0.96176790
    70  C          0.13234000       0.07747160       0.53823210
    71  C          0.13234000       0.42252840       0.03823210
    72  C          0.86766000       0.92252840       0.46176790
    73  C          0.78617000       0.52947140       0.98573810
    74  C          0.21383000       0.02947140       0.51426190
    75  C          0.21383000       0.47052860       0.01426190
    76  C          0.78617000       0.97052860       0.48573810
    77  C          0.80886000       0.51107160       0.06824220
    78  C          0.19114000       0.01107160       0.43175780
    79  C          0.19114000       0.48892840       0.93175780
    80  C          0.80886000       0.98892840       0.56824220
    81  C          0.91106000       0.53989160       0.12696200
    82  C          0.08894000       0.03989160       0.37303800
    83  C          0.08894000       0.46010840       0.87303800
    84  C          0.91106000       0.96010840       0.62696200
    85  C          0.68267000       0.49879150       0.92346780
    86  C          0.31733000      -0.00120850       0.57653220
    87  C          0.31733000       0.50120850       0.07653220
    88  C          0.68267000       0.00120850       0.42346780
    89  C          0.29663000       0.66525140       0.28906200
    90  C          0.70337000       0.16525140       0.21093800
    91  C          0.70337000       0.33474860       0.71093800
    92  C          0.29663000       0.83474860       0.78906200
    93  C          0.23993000       0.70726140       0.35378190
    94  C          0.76007000       0.20726140       0.14621810
    95  C          0.76007000       0.29273860       0.64621810
    96  C          0.23993000       0.79273860       0.85378190
    97  C          0.02853000       0.64830150       0.37438220
    98  C          0.97147000       0.14830150       0.12561780
    99  C          0.97147000       0.35169850       0.62561780
   100  C          0.02853000       0.85169850       0.87438220
   101  C          0.04314000       0.75781170       0.40296220
   102  C          0.95686000       0.25781170       0.09703780
   103  C          0.95686000       0.24218830       0.59703780
   104  C          0.04314000       0.74218830       0.90296220
   105  H          0.63300000       0.82100000       0.29600000
   106  H          0.36700000       0.32100000       0.20400000
   107  H          0.36700000       0.17900000       0.70400000
   108  H          0.63300000       0.67900000       0.79600000
   109  H          0.74600000       0.91300000       0.24900000
   110  H          0.25400000       0.41300000       0.25100000
   111  H          0.25400000       0.08700000       0.75100000
   112  H          0.74600000       0.58700000       0.74900000
   113  H          0.45200000       0.91200000       0.02300000
   114  H          0.54800000       0.41200000       0.47700000
   115  H          0.54800000       0.08800000       0.97700000
   116  H          0.45200000       0.58800000       0.52300000
   117  H          0.34000000       0.81900000       0.06900000
   118  H          0.66000000       0.31900000       0.43100000
   119  H          0.66000000       0.18100000       0.93100000
   120  H          0.34000000       0.68100000       0.56900000
   121  H          0.03200000       0.64200000       0.00100000
   122  H          0.96800000       0.14200000       0.49900000
   123  H          0.96800000       0.35800000      -0.00100000
   124  H          0.03200000       0.85800000       0.50100000
   125  H          0.85500000       0.59200000       0.89900000
   126  H          0.14500000       0.09200000       0.60100000
   127  H          0.14500000       0.40800000       0.10100000
   128  H          0.85500000       0.90800000       0.39900000
   129  H          0.74600000       0.47500000       0.08800000
   130  H          0.25400000       0.97500000       0.41200000
   131  H          0.25400000       0.52500000       0.91200000
   132  H          0.74600000       0.02500000       0.58800000
   133  H          0.93000000       0.52500000       0.18900000
   134  H          0.07000000       0.02500000       0.31100000
   135  H          0.07000000       0.47500000       0.81100000
   136  H          0.93000000       0.97500000       0.68900000
   137  H          0.25600000       0.62200000       0.29500000
   138  H          0.74400000       0.12200000       0.20500000
   139  H          0.74400000       0.37800000       0.70500000
   140  H          0.25600000       0.87800000       0.79500000
   141  H          0.40600000       0.66200000       0.30300000
   142  H          0.59400000       0.16200000       0.19700000
   143  H          0.59400000       0.33800000       0.69700000
   144  H          0.40600000       0.83800000       0.80300000
   145  H          0.27500000       0.75100000       0.34500000
   146  H          0.72500000       0.25100000       0.15500000
   147  H          0.72500000       0.24900000       0.65500000
   148  H          0.27500000       0.74900000       0.84500000
   149  H          0.28500000       0.69400000       0.41300000
   150  H          0.71500000       0.19400000       0.08700000
   151  H          0.71500000       0.30600000       0.58700000
   152  H          0.28500000       0.80600000       0.91300000
   153  H          0.05300000       0.61200000       0.33200000
   154  H          0.94700000       0.11200000       0.16800000
   155  H          0.94700000       0.38800000       0.66800000
   156  H          0.05300000       0.88800000       0.83200000
   157  H          0.08400000       0.79900000       0.38700000
   158  H          0.91600000       0.29900000       0.11300000
   159  H          0.91600000       0.20100000       0.61300000
   160  H          0.08400000       0.70100000       0.88700000
   161  H          0.91900000       0.65500000       0.37200000
   162  H          0.08100000       0.15500000       0.12800000
   163  H          0.08100000       0.34500000       0.62800000
   164  H          0.91900000       0.84500000       0.87200000
   165  H          0.07400000       0.75200000       0.46700000
   166  H          0.92600000       0.25200000       0.03300000
   167  H          0.92600000       0.24800000       0.53300000
   168  H          0.07400000       0.74800000       0.96700000
   169  H          0.92000000       0.75600000       0.39700000
   170  H          0.08000000       0.25600000       0.10300000
   171  H          0.08000000       0.24400000       0.60300000
   172  H          0.92000000       0.74400000       0.89700000
   173  H          0.09100000       0.63300000       0.43300000
   174  H          0.90900000       0.13300000       0.06700000
   175  H          0.90900000       0.36700000       0.56700000
   176  H          0.09100000       0.86700000       0.93300000
   177  N          0.08598240       0.84339900       0.21902150
   178  N          0.91401760       0.34339900       0.28097850
   179  N          0.91401760       0.15660100       0.78097850
   180  N          0.08598240       0.65660100       0.71902150
   181  N          0.97872770       0.82375890       0.16647150
   182  N          0.02127230       0.32375890       0.33352850
   183  N          0.02127230       0.17624110       0.83352850
   184  N          0.97872770       0.67624110       0.66647150
   185  N          0.93057760       0.76877900       0.18978150
   186  N          0.06942240       0.26877900       0.31021850
   187  N          0.06942240       0.23122100       0.81021850
   188  N          0.93057760       0.73122100       0.68978150
   189  N          0.36133000       0.11878130       0.11406190
   190  N          0.63867000       0.61878130       0.38593810
   191  N          0.63867000       0.88121870       0.88593810
   192  N          0.36133000       0.38121870       0.61406190
   193  N          0.36027000       0.63370870       0.94774810
   194  N          0.63973000       0.13370870       0.55225190
   195  N          0.63973000       0.36629130       0.05225190
   196  N          0.36027000       0.86629130       0.44774810
   197  C          0.81297000       0.74203870       0.13825180
   198  C          0.18703000       0.24203870       0.36174820
   199  C          0.18703000       0.25796130       0.86174820
   200  C          0.81297000       0.75796130       0.63825180
   201  C          0.75027000       0.68990870       0.16868190
   202  C          0.24973000       0.18990870       0.33131810
   203  C          0.24973000       0.31009130       0.83131810
   204  C          0.75027000       0.81009130       0.66868190
   205  C          0.63377000       0.66120870       0.12024200
   206  C          0.36623000       0.16120870       0.37975800
   207  C          0.36623000       0.33879130       0.87975800
   208  C          0.63377000       0.83879130       0.62024200
   209  C          0.57867000       0.68462870       0.04071190
   210  C          0.42133000       0.18462870       0.45928810
   211  C          0.42133000       0.31537130       0.95928810
   212  C          0.57867000       0.81537130       0.54071190
   213  C          0.64087000       0.73738860       0.01047190
   214  C          0.35913000       0.23738860       0.48952810
   215  C          0.35913000       0.26261140       0.98952810
   216  C          0.64087000       0.76261140       0.51047190
   217  C          0.75707000       0.76575870       0.05825190
   218  C          0.24293000       0.26575870       0.44174810
   219  C          0.24293000       0.23424130       0.94174810
   220  C          0.75707000       0.73424130       0.55825190
   221  C          0.45657000       0.65602860       0.98907800
   222  C          0.54343000       0.15602860       0.51092200
   223  C          0.54343000       0.34397140       0.01092200
   224  C          0.45657000       0.84397140       0.48907800
   225  C          0.13553000       0.90210870       0.19410180
   226  C          0.86447000       0.40210870       0.30589820
   227  C          0.86447000       0.09789130       0.80589820
   228  C          0.13553000       0.59789130       0.69410180
   229  C          0.07193000       0.93603860       0.12421200
   230  C          0.92807000       0.43603860       0.37578800
   231  C          0.92807000       0.06396140       0.87578800
   232  C          0.07193000       0.56396140       0.62421200
   233  C          0.13113000       0.99209850       0.10456210
   234  C          0.86887000       0.49209850       0.39543790
   235  C          0.86887000       0.00790150       0.89543790
   236  C          0.13113000       0.50790150       0.60456210
   237  C          0.25463000       0.01420130       0.15436190
   238  C          0.74537000       0.51420130       0.34563810
   239  C          0.74537000       0.98579870       0.84563810
   240  C          0.25463000       0.48579870       0.65436190
   241  C          0.31713000       0.98117860       0.22483180
   242  C          0.68287000       0.48117860       0.27516820
   243  C          0.68287000       0.01882140       0.77516820
   244  C          0.31713000       0.51882140       0.72483180
   245  C          0.25753000       0.92537870       0.24462180
   246  C          0.74247000       0.42537870       0.25537820
   247  C          0.74247000       0.07462130       0.75537820
   248  C          0.25753000       0.57462130       0.74462180
   249  C          0.31553000       0.07264150       0.13259200
   250  C          0.68447000       0.57264150       0.36740800
   251  C          0.68447000       0.92735850       0.86740800
   252  C          0.31553000       0.42735850       0.63259200
   253  H          0.79200000       0.67200000       0.22700000
   254  H          0.20800000       0.17200000       0.27300000
   255  H          0.20800000       0.32800000       0.77300000
   256  H          0.79200000       0.82800000       0.72700000
   257  H          0.58500000       0.62300000       0.14200000
   258  H          0.41500000       0.12300000       0.35800000
   259  H          0.41500000       0.37700000       0.85800000
   260  H          0.58500000       0.87700000       0.64200000
   261  H          0.59800000       0.75600000       0.95200000
   262  H          0.40200000       0.25600000       0.54800000
   263  H          0.40200000       0.24400000       0.04800000
   264  H          0.59800000       0.74400000       0.45200000
   265  H          0.80400000       0.80500000       0.03600000
   266  H          0.19600000       0.30500000       0.46400000
   267  H          0.19600000       0.19500000       0.96400000
   268  H          0.80400000       0.69500000       0.53600000
   269  H          0.98100000       0.92000000       0.08700000
   270  H          0.01900000       0.42000000       0.41300000
   271  H          0.01900000       0.08000000       0.91300000
   272  H          0.98100000       0.58000000       0.58700000
   273  H          0.08300000       0.01700000       0.05300000
   274  H          0.91700000       0.51700000       0.44700000
   275  H          0.91700000       0.98300000       0.94700000
   276  H          0.08300000       0.48300000       0.55300000
   277  H          0.40700000      -0.00200000       0.26300000
   278  H          0.59300000       0.49800000       0.23700000
   279  H          0.59300000       0.00200000       0.73700000
   280  H          0.40700000       0.50200000       0.76300000
   281  H          0.30400000       0.90000000       0.29600000
   282  H          0.69600000       0.40000000       0.20400000
   283  H          0.69600000       0.10000000       0.70400000
   284  H          0.30400000       0.60000000       0.79600000
   285  H         -0.00600000       0.74800000       0.24900000
   286  H          0.00600000       0.24800000       0.25100000
   287  H          0.00600000       0.25200000       0.75100000
   288  H         -0.00600000       0.75200000       0.74900000
