data_HUVYIG
_symmetry_space_group_name_H-M    'P1'
_symmetry_Int_Tables_number       1
loop_
_symmetry_equiv_pos_site_id
_symmetry_equiv_pos_as_xyz
1 x,y,z
_cell_length_a                   10.56357
_cell_length_b                   10.86655
_cell_length_c                   16.958511
_cell_angle_alpha                90.0
_cell_angle_beta                 90.0
_cell_angle_gamma                90.0
loop_
_atom_site_label
_atom_site_type_symbol
_atom_site_fract_x
_atom_site_fract_y
_atom_site_fract_z
     1  S          0.33168500       0.69399500       0.30511700
     2  S          0.16831500       0.30600500       0.80511700
     3  S          0.83168500       0.80600500       0.69488300
     4  S          0.66831500       0.19399500       0.19488300
     5  S          0.71962500       0.94189500       0.37134700
     6  S          0.78037500       0.05810500       0.87134700
     7  S          0.21962500       0.55810500       0.62865300
     8  S          0.28037500       0.44189500       0.12865300
     9  F          0.40753140       0.73296840       0.16039200
    10  F          0.09246860       0.26703160       0.66039200
    11  F          0.90753140       0.76703160       0.83960800
    12  F          0.59246860       0.23296840       0.33960800
    13  F          0.41504180       0.89037850       0.23723900
    14  F          0.08495820       0.10962150       0.73723900
    15  F          0.91504180       0.60962150       0.76276100
    16  F          0.58495820       0.39037850       0.26276100
    17  F          0.55224130       0.74568000       0.24949900
    18  F          0.94775870       0.25432000       0.74949900
    19  F          0.05224130       0.75432000       0.75050100
    20  F          0.44775870       0.24568000       0.25050100
    21  O          0.34928140       0.75826850       0.37701100
    22  O          0.15071860       0.24173150       0.87701100
    23  O          0.84928140       0.74173150       0.62298900
    24  O          0.65071860       0.25826850       0.12298900
    25  O          0.35346160       0.56654840       0.29874890
    26  O          0.14653840       0.43345160       0.79874890
    27  O          0.85346160       0.93345160       0.70125110
    28  O          0.64653840       0.06654840       0.20125110
    29  O          0.20141120       0.72349870       0.26605200
    30  O          0.29858880       0.27650130       0.76605200
    31  O          0.70141120       0.77650130       0.73394800
    32  O          0.79858880       0.22349870       0.23394800
    33  O         -0.01176140       0.78985870       0.18393200
    34  O          0.51176140       0.21014130       0.68393200
    35  O          0.48823860       0.71014130       0.81606800
    36  O          0.01176140       0.28985870       0.31606800
    37  O         -0.00135150       0.03280160       0.33234100
    38  O          0.50135150       0.96719840       0.83234100
    39  O          0.49864850       0.46719840       0.66765900
    40  O          0.00135150       0.53280160       0.16765900
    41  O          0.06620130       0.64557870       0.39260200
    42  O          0.43379870       0.35442130       0.89260200
    43  O          0.56620130       0.85442130       0.60739800
    44  O          0.93379870       0.14557870       0.10739800
    45  O          0.74705850       0.58908850       0.35011100
    46  O          0.75294150       0.41091150       0.85011100
    47  O          0.24705850       0.91091150       0.64988900
    48  O          0.25294150       0.08908850       0.14988900
    49  O          0.66740860       0.61354860       0.47215100
    50  O          0.83259140       0.38645140       0.97215100
    51  O          0.16740860       0.88645140       0.52784900
    52  O          0.33259140       0.11354860       0.02784900
    53  N          0.91034850       0.78541850       0.36941900
    54  N          0.58965150       0.21458150       0.86941900
    55  N          0.41034850       0.71458150       0.63058100
    56  N          0.08965150       0.28541850       0.13058100
    57  C          0.43322000       0.77088000       0.23254870
    58  C          0.06678000       0.22912000       0.73254870
    59  C          0.93322000       0.72912000       0.76745130
    60  C          0.56678000       0.27088000       0.26745130
    61  C          0.11170170       0.80949810       0.30202880
    62  C          0.38829830       0.19050190       0.80202880
    63  C          0.61170170       0.69050190       0.69797120
    64  C          0.88829830       0.30949810       0.19797120
    65  C          0.04399180       0.87667810       0.23607890
    66  C          0.45600820       0.12332190       0.73607890
    67  C          0.54399180       0.62332190       0.76392110
    68  C          0.95600820       0.37667810       0.26392110
    69  C          0.94072810       0.95578820       0.27533890
    70  C          0.55927190       0.04421180       0.77533890
    71  C          0.44072810       0.54421180       0.72466110
    72  C          0.05927190       0.45578820       0.22466110
    73  C          0.84678820       0.86885820       0.31367890
    74  C          0.65321180       0.13114180       0.81367890
    75  C          0.34678820       0.63114180       0.68632110
    76  C          0.15321180       0.36885820       0.18632110
    77  C          0.02590180       0.73616830       0.35763890
    78  C          0.47409820       0.26383170       0.85763890
    79  C          0.52590180       0.76383170       0.64236110
    80  C          0.97409820       0.23616830       0.14236110
    81  C          0.76378000       0.86328000       0.46179880
    82  C          0.73622000       0.13672000       0.96179880
    83  C          0.26378000       0.63672000       0.53820120
    84  C          0.23622000       0.36328000       0.03820120
    85  C          0.83198000       0.74656810       0.43549880
    86  C          0.66802000       0.25343190       0.93549880
    87  C          0.33198000       0.75343190       0.56450120
    88  C          0.16802000       0.24656810       0.06450120
    89  C          0.74433820       0.64159810       0.41228880
    90  C          0.75566180       0.35840190       0.91228880
    91  C          0.24433820       0.85840190       0.58771120
    92  C          0.25566180       0.14159810       0.08771120
    93  C          0.58708000       0.50638000       0.46041840
    94  C          0.91292000       0.49362000       0.96041840
    95  C          0.08708000      -0.00638000       0.53958160
    96  C          0.41292000       0.00638000       0.03958160
    97  H          0.80208100       0.81880000       0.27318800
    98  H          0.69791900       0.18120000       0.77318800
    99  H          0.30208100       0.68120000       0.72681200
   100  H          0.19791900       0.31880000       0.22681200
   101  H          0.10220000       0.92980000       0.20908600
   102  H          0.39780000       0.07020000       0.70908600
   103  H          0.60220000       0.57020000       0.79091400
   104  H          0.89780000       0.42980000       0.29091400
   105  H          0.68680000       0.84280000       0.49338700
   106  H          0.81320000       0.15720000      -0.00661300
   107  H          0.18680000       0.65720000       0.50661300
   108  H          0.31320000       0.34280000       0.00661300
   109  H          0.88480000       0.71880000       0.47558600
   110  H          0.61520000       0.28120000       0.97558600
   111  H          0.38480000       0.78120000       0.52441400
   112  H          0.11520000       0.21880000       0.02441400
   113  H          0.15120000       0.86580000       0.33298800
   114  H          0.34880000       0.13420000       0.83298800
   115  H          0.65120000       0.63420000       0.66701200
   116  H          0.84880000       0.36580000       0.16701200
   117  H          0.81570000       0.92070000       0.49278400
   118  H          0.68430000       0.07930000      -0.00721600
   119  H          0.31570000       0.57930000       0.50721600
   120  H          0.18430000       0.42070000       0.00721600
   121  H          0.52870000       0.52170000       0.41588400
   122  H          0.97130000       0.47830000       0.91588400
   123  H          0.02870000       0.97830000       0.58411600
   124  H          0.47130000       0.02170000       0.08411600
   125  H          0.63670000       0.43370000       0.44898500
   126  H          0.86330000       0.56630000       0.94898500
   127  H          0.13670000       0.06630000       0.55101500
   128  H          0.36330000       0.93370000       0.05101500
   129  H          0.89580000       0.00220000       0.23488700
   130  H          0.60420000      -0.00220000       0.73488700
   131  H          0.39580000       0.49780000       0.76511300
   132  H          0.10420000       0.50220000       0.26511300
   133  H          0.02430000       0.80470000       0.13838100
   134  H          0.47570000       0.19530000       0.63838100
   135  H          0.52430000       0.69530000       0.86161900
   136  H          0.97570000       0.30470000       0.36161900
   137  H         -0.00630000       0.10030000       0.31868200
   138  H          0.50630000       0.89970000       0.81868200
   139  H          0.49370000       0.39970000       0.68131800
   140  H          0.00630000       0.60030000       0.18131800
   141  H          0.55270000       0.49270000       0.51268300
   142  H          0.94730000       0.50730000       0.01268300
   143  H          0.05270000       0.00730000       0.48731700
   144  H          0.44730000      -0.00730000       0.98731700
   145  N          0.41016180       0.18355180       0.54058890
   146  N          0.08983820       0.81644820       0.04058890
   147  N          0.91016180       0.31644820       0.45941110
   148  N          0.58983820       0.68355180       0.95941110
   149  C          0.42713000       0.08512000       0.49470860
   150  C          0.07287000       0.91488000      -0.00529140
   151  C          0.92713000       0.41488000       0.50529140
   152  C          0.57287000       0.58512000       0.00529140
   153  C          0.36853000       0.07113000       0.42269850
   154  C          0.13147000       0.92887000       0.92269850
   155  C          0.86853000       0.42887000       0.57730150
   156  C          0.63147000       0.57113000       0.07730150
   157  C          0.28903000       0.16353000       0.39663850
   158  C          0.21097000       0.83647000       0.89663850
   159  C          0.78903000       0.33647000       0.60336150
   160  C          0.71097000       0.66353000       0.10336150
   161  C          0.27273000       0.26593000       0.44268830
   162  C          0.22727000       0.73407000       0.94268830
   163  C          0.77273000       0.23407000       0.55731170
   164  C          0.72727000       0.76593000       0.05731170
   165  C          0.33423000       0.27222000       0.51398840
   166  C          0.16577000       0.72778000       0.01398840
   167  C          0.83423000       0.22778000       0.48601160
   168  C          0.66577000       0.77222000       0.98601160
   169  H          0.48530000       0.02430000       0.51798200
   170  H          0.01470000       0.97570000       0.01798200
   171  H          0.98530000       0.47570000       0.48201800
   172  H          0.51470000       0.52430000       0.98201800
   173  H          0.37930000       0.01030000       0.39248400
   174  H          0.12070000      -0.01030000       0.89248400
   175  H          0.87930000       0.48970000       0.60751600
   176  H          0.62070000       0.51030000       0.10751600
   177  H          0.24830000       0.15830000       0.34880000
   178  H          0.25170000       0.84170000       0.84880000
   179  H          0.74830000       0.34170000       0.65120000
   180  H          0.75170000       0.65830000       0.15120000
   181  H          0.32330000       0.34430000       0.54808200
   182  H          0.17670000       0.65570000       0.04808200
   183  H          0.82330000       0.15570000       0.45191800
   184  H          0.67670000       0.84430000       0.95191800
   185  H          0.21930000       0.32830000       0.42308500
   186  H          0.28070000       0.67170000       0.92308500
   187  H          0.71930000       0.17170000       0.57691500
   188  H          0.78070000       0.82830000       0.07691500
