data_HUZKOC
_symmetry_space_group_name_H-M    'P1'
_symmetry_Int_Tables_number       1
loop_
_symmetry_equiv_pos_site_id
_symmetry_equiv_pos_as_xyz
1 x,y,z
_cell_length_a                   6.61332
_cell_length_b                   8.07372
_cell_length_c                   17.88485
_cell_angle_alpha                77.74601
_cell_angle_beta                 83.21101
_cell_angle_gamma                80.16901
loop_
_atom_site_label
_atom_site_type_symbol
_atom_site_fract_x
_atom_site_fract_y
_atom_site_fract_z
     1  Cl         0.90930500       0.02471400       0.16357519
     2  Cl         0.09069500       0.97528600       0.83642481
     3  O          0.54008860       0.97248890       0.22730500
     4  O          0.45991140       0.02751110       0.77269500
     5  O          0.93601860       0.44295890       0.24933500
     6  O          0.06398140       0.55704110       0.75066500
     7  O          0.08735140       0.64206880       0.16422600
     8  O          0.91264860       0.35793120       0.83577400
     9  N          0.58097840       0.88615870       0.30664600
    10  N          0.41902160       0.11384130       0.69335400
    11  C          0.37614810       0.89131830       0.35159800
    12  C          0.62385190       0.10868170       0.64840200
    13  C          0.28308810       0.74467820       0.33415800
    14  C          0.71691190       0.25532180       0.66584200
    15  C          0.47192810       0.60352840       0.33350800
    16  C          0.52807190       0.39647160       0.66649200
    17  C          0.65591820       0.70018850       0.30182700
    18  C          0.34408180       0.29981150       0.69817300
    19  C          0.73236830       0.70836850       0.21625700
    20  C          0.26763170       0.29163150       0.78374300
    21  C          0.57313820       0.69007840       0.15951700
    22  C          0.42686180       0.30992160       0.84048300
    23  C          0.59758000       0.53561830       0.12020800
    24  C          0.40242000       0.46438170       0.87979200
    25  C          0.75138000       0.54419820       0.04882800
    26  C          0.24862000       0.45580180       0.95117200
    27  C          0.71788000       0.72062810      -0.00365800
    28  C          0.28212000       0.27937190       0.00365800
    29  C          0.76018000       0.85760820       0.03772800
    30  C          0.23982000       0.14239180       0.96227200
    31  C          0.60908000       0.86801830       0.10907700
    32  C          0.39092000       0.13198170       0.89092300
    33  C          0.70026810       0.90138840       0.17885700
    34  C          0.29973190       0.09861160       0.82114300
    35  C          0.94037820       0.59996840       0.20571700
    36  C          0.05962180       0.40003160       0.79428300
    37  C          0.12182000       0.31930820       0.24252900
    38  C          0.87818000       0.68069180       0.75747100
    39  H          0.40680000       0.86580000       0.40521000
    40  H          0.59320000       0.13420000       0.59479000
    41  H          0.29570000       0.00320000       0.33919000
    42  H          0.70430000      -0.00320000       0.66081000
    43  H          0.22680000       0.78308100       0.28349000
    44  H          0.77320000       0.21691900       0.71651000
    45  H          0.17470000       0.71080000       0.37411100
    46  H          0.82530000       0.28920000       0.62588900
    47  H          0.49180000       0.54180000       0.38601000
    48  H          0.50820000       0.45820000       0.61399000
    49  H          0.45980000       0.51680000       0.30351000
    50  H          0.54020000       0.48320000       0.69649000
    51  H          0.76880000       0.65880000       0.33309000
    52  H          0.23120000       0.34120000       0.66691000
    53  H          0.43780000       0.70198100       0.18689000
    54  H          0.56220000       0.29801900       0.81311000
    55  H          0.46470000       0.53380000       0.10421000
    56  H          0.53530000       0.46620000       0.89579000
    57  H          0.62980000       0.42780000       0.15889000
    58  H          0.37020000       0.57220000       0.84111000
    59  H          0.89180000       0.52388100       0.06279000
    60  H          0.10820000       0.47611900       0.93721000
    61  H          0.73580000       0.45280000       0.02341000
    62  H          0.26420000       0.54720000       0.97659000
    63  H          0.80570000       0.72280000       0.94928900
    64  H          0.19430000       0.27720000       0.05071100
    65  H          0.57770000       0.74680000       0.97999000
    66  H          0.42230000       0.25320000       0.02001000
    67  H          0.89680000       0.82678100       0.05349000
    68  H          0.10320000       0.17321900       0.94651000
    69  H          0.75170000       0.97280000       0.00341100
    70  H          0.24830000       0.02720000      -0.00341100
    71  H          0.48570000       0.94580000       0.09709000
    72  H          0.51430000       0.05420000       0.90291000
    73  H          0.16730000       0.32180000       0.18891100
    74  H          0.83270000       0.67820000       0.81108900
    75  H          0.22330000       0.34280000       0.26761000
    76  H          0.77670000       0.65720000       0.73239000
    77  H          0.08130000       0.20680000       0.26801100
    78  H          0.91870000       0.79320000       0.73198900
    79  O          0.05205150       0.17594140       0.43769700
    80  O          0.94794850       0.82405860       0.56230300
    81  O          0.76636850       0.34249120       0.47483600
    82  O          0.23363150       0.65750880       0.52516400
    83  O          0.54123840       0.16682170       0.41118900
    84  O          0.45876160       0.83317830       0.58881100
    85  O          0.83164860       0.03342120       0.35997500
    86  O          0.16835140       0.96657880       0.64002500
    87  C          0.85501810       0.22915160       0.44224700
    88  C          0.14498190       0.77084840       0.55775300
    89  C          0.72838000       0.13487170       0.40170800
    90  C          0.27162000       0.86512830       0.59829200
    91  H          0.11640000       0.23630000       0.46531400
    92  H          0.88360000       0.76370000       0.53468600
    93  H          0.71260000       0.96270000       0.33421400
    94  H          0.28740000       0.03730000       0.66578600
    95  O          0.26688160       0.31727140       0.50902600
    96  O          0.73311840       0.68272860       0.49097400
    97  H          0.24330000       0.42630000       0.50901200
    98  H          0.75670000       0.57370000       0.49098800
    99  H          0.38140000       0.29430000       0.48521300
   100  H          0.61860000       0.70570000       0.51478700
