data_HUZWAA
_symmetry_space_group_name_H-M    'P1'
_symmetry_Int_Tables_number       1
loop_
_symmetry_equiv_pos_site_id
_symmetry_equiv_pos_as_xyz
1 x,y,z
_cell_length_a                   14.5785
_cell_length_b                   22.1048
_cell_length_c                   5.9013
_cell_angle_alpha                90.0
_cell_angle_beta                 90.0
_cell_angle_gamma                90.0
loop_
_atom_site_label
_atom_site_type_symbol
_atom_site_fract_x
_atom_site_fract_y
_atom_site_fract_z
     1  O          0.58858600       0.27622400       0.23322000
     2  O          0.91141400       0.72377600       0.73322000
     3  O          0.08858600       0.22377600       0.76678000
     4  O          0.41141400       0.77622400       0.26678000
     5  O          0.50711600       0.24703500       0.53392000
     6  O         -0.00711600       0.75296500       0.03392000
     7  O          0.00711600       0.25296500       0.46608000
     8  O          0.49288400       0.74703500       0.96608000
     9  N          0.15829700       0.21829500       0.21522000
    10  N          0.34170300       0.78170500       0.71522000
    11  N          0.65829700       0.28170500       0.78478000
    12  N          0.84170300       0.71829500       0.28478000
    13  O          0.30925700       0.17025500       0.95918000
    14  O          0.19074300       0.82974500       0.45918000
    15  O          0.80925700       0.32974500       0.04082000
    16  O          0.69074300       0.67025500       0.54082000
    17  N          0.38713700       0.18631500       0.28672000
    18  N          0.11286300       0.81368500       0.78672000
    19  N          0.88713700       0.31368500       0.71328000
    20  N          0.61286300       0.68631500       0.21328000
    21  C          0.52792700       0.24554600       0.32922000
    22  C          0.97207300       0.75445400       0.82922000
    23  C          0.02792700       0.25445400       0.67078000
    24  C          0.47207300       0.74554600       0.17078000
    25  C          0.18275800       0.10827500       0.29672000
    26  C          0.31724200       0.89172500       0.79672000
    27  C          0.68275800       0.39172500       0.70328000
    28  C          0.81724200       0.60827500       0.20328000
    29  C          0.53356800       0.14268600       0.15252000
    30  C          0.96643200       0.85731400       0.65252000
    31  C          0.03356800       0.35731400       0.84748000
    32  C          0.46643200       0.64268600       0.34748000
    33  C          0.31113800       0.17588600       0.16612000
    34  C          0.18886200       0.82411400       0.66612000
    35  C          0.81113800       0.32411400       0.83388000
    36  C          0.68886200       0.67588600       0.33388000
    37  C          0.13908900       0.08608600       0.10472000
    38  C          0.36091100       0.91391400       0.60472000
    39  C          0.63908900       0.41391400       0.89528000
    40  C          0.86091100       0.58608600       0.39528000
    41  C          0.47515800       0.19911600       0.17952000
    42  C          0.02484200       0.80088400       0.67952000
    43  C          0.97515800       0.30088400       0.82048000
    44  C          0.52484200       0.69911600       0.32048000
    45  C          0.22233800       0.17119600       0.30572000
    46  C          0.27766200       0.82880400       0.80572000
    47  C          0.72233800       0.32880400       0.69428000
    48  C          0.77766200       0.67119600       0.19428000
    49  C          0.19341000       0.07115700       0.48502000
    50  C          0.30659000       0.92884300      -0.01498000
    51  C          0.69341000       0.42884300       0.51498000
    52  C          0.80659000       0.57115700       0.01498000
    53  C          0.10511000       0.02768700       0.10253000
    54  C          0.39489000       0.97231300       0.60253000
    55  C          0.60511000       0.47231300       0.89747000
    56  C          0.89489000       0.52768700       0.39747000
    57  C          0.58051000       0.13239700       0.95397000
    58  C          0.91949000       0.86760300       0.45397000
    59  C          0.08051000       0.36760300       0.04603000
    60  C          0.41949000       0.63239700       0.54603000
    61  C          0.11631000       0.99045400       0.29103000
    62  C          0.38369000       0.00954600       0.79103000
    63  C          0.61631000       0.50954600       0.70897000
    64  C          0.88369000       0.49045400       0.20897000
    65  C          0.54461000       0.10300700       0.33273000
    66  C          0.95539000       0.89699300       0.83273000
    67  C          0.04461000       0.39699300       0.66727000
    68  C          0.45539000       0.60300700       0.16727000
    69  C          0.63911000       0.08302800       0.93327000
    70  C          0.86089000       0.91697200       0.43327000
    71  C          0.13911000       0.41697200       0.06673000
    72  C          0.36089000       0.58302800       0.56673000
    73  C          0.16051000       0.01210800       0.48103000
    74  C          0.33949000       0.98789200      -0.01897000
    75  C          0.66051000       0.48789200       0.51897000
    76  C          0.83949000       0.51210800       0.01897000
    77  C          0.64941000       0.04334800       0.11284000
    78  C          0.85059000       0.95665200       0.61284000
    79  C          0.14941000       0.45665200       0.88716000
    80  C          0.35059000       0.54334800       0.38716000
    81  C          0.60161000       0.05296700       0.31323000
    82  C          0.89839000       0.94703300       0.81323000
    83  C          0.10161000       0.44703300       0.68677000
    84  C          0.39839000       0.55296700       0.18677000
    85  H          0.06810000       0.00929000       0.96560000
    86  H          0.43190000       0.99071000       0.46560000
    87  H          0.56810000       0.49071000       0.03440000
    88  H          0.93190000       0.50929000       0.53440000
    89  H          0.38510000       0.19857000       0.42830000
    90  H          0.11490000       0.80143000       0.92830000
    91  H          0.88510000       0.30143000       0.57170000
    92  H          0.61490000       0.69857000       0.07170000
    93  H          0.23319000       0.18057000       0.46720000
    94  H          0.26681000       0.81943000       0.96720000
    95  H          0.73319000       0.31943000       0.53280000
    96  H          0.76681000       0.68057000       0.03280000
    97  H          0.14310000       0.21038000       0.02940000
    98  H          0.35690000       0.78962000       0.52940000
    99  H          0.64310000       0.28962000       0.97060000
   100  H          0.85690000       0.71038000       0.47060000
   101  H          0.13189000       0.11186000      -0.01730000
   102  H          0.36811000       0.88814000       0.48270000
   103  H          0.63189000       0.38814000       0.01730000
   104  H          0.86811000       0.61186000       0.51730000
   105  H          0.46278000       0.21655000       0.03120000
   106  H          0.03722000       0.78345000       0.53120000
   107  H          0.96278000       0.28345000       0.96880000
   108  H          0.53722000       0.71655000       0.46880000
   109  H          0.69910000       0.00579000       0.11330000
   110  H          0.80090000      -0.00579000       0.61330000
   111  H          0.19910000       0.49421000       0.88670000
   112  H          0.30090000       0.50579000       0.38670000
   113  H          0.22810000       0.08908000       0.61730000
   114  H          0.27190000       0.91092000       0.11730000
   115  H          0.72810000       0.41092000       0.38270000
   116  H          0.77190000       0.58908000       0.88270000
   117  H          0.67910000       0.07817000       0.78070000
   118  H          0.82090000       0.92183000       0.28070000
   119  H          0.17910000       0.42183000       0.21930000
   120  H          0.32090000       0.57817000       0.71930000
   121  H          0.60410000       0.02110000       0.44630000
   122  H          0.89590000       0.97890000       0.94630000
   123  H          0.10410000       0.47890000       0.55370000
   124  H          0.39590000       0.52110000       0.05370000
   125  H          0.10610000       0.21707000       0.30230000
   126  H          0.39390000       0.78293000       0.80230000
   127  H          0.60610000       0.28293000       0.69770000
   128  H          0.89390000       0.71707000       0.19770000
   129  H          0.56810000       0.15597000       0.83270000
   130  H          0.93190000       0.84403000       0.33270000
   131  H          0.06810000       0.34403000       0.16730000
   132  H          0.43190000       0.65597000       0.66730000
   133  H          0.51210000       0.11407000       0.48330000
   134  H          0.98790000       0.88593000      -0.01670000
   135  H          0.01210000       0.38593000       0.51670000
   136  H          0.48790000       0.61407000       0.01670000
   137  H          0.18610000       0.25010000       0.20430000
   138  H          0.31390000       0.74990000       0.70430000
   139  H          0.68610000       0.24990000       0.79570000
   140  H          0.81390000       0.75010000       0.29570000
   141  H          0.17510000       0.98591000       0.62730000
   142  H          0.32490000       0.01409000       0.12730000
   143  H          0.67510000       0.51409000       0.37270000
   144  H          0.82490000       0.48591000       0.87270000
   145  H          0.08610000       0.95123000       0.28930000
   146  H          0.41390000       0.04877000       0.78930000
   147  H          0.58610000       0.54877000       0.71070000
   148  H          0.91390000       0.45123000       0.21070000
   149  N          0.37863800       0.37187500       0.43322000
   150  N          0.12136200       0.62812500       0.93322000
   151  N          0.87863800       0.12812500       0.56678000
   152  N          0.62136200       0.87187500       0.06678000
   153  O          0.27159800       0.31374500       0.27892000
   154  O          0.22840200       0.68625500       0.77892000
   155  O          0.77159800       0.18625500       0.72108000
   156  O          0.72840200       0.81374500       0.22108000
   157  C          0.30991000       0.33276600       0.45173000
   158  C          0.19009000       0.66723400       0.95173000
   159  C          0.80991000       0.16723400       0.54827000
   160  C          0.69009000       0.83276600       0.04827000
   161  C          0.41282000       0.38659800       0.20823000
   162  C          0.08718000       0.61340200       0.70823000
   163  C          0.91282000       0.11340200       0.79177000
   164  C          0.58718000       0.88659800       0.29177000
   165  C          0.28081000       0.31243900       0.68223000
   166  C          0.21919000       0.68756100       0.18223000
   167  C          0.78081000       0.18756100       0.31777000
   168  C          0.71919000       0.81243900       0.81777000
   169  C          0.43192000       0.39451000       0.62243000
   170  C          0.06808000       0.60549000       0.12243000
   171  C          0.93192000       0.10549000       0.37757000
   172  C          0.56808000       0.89451000       0.87757000
   173  H          0.48110000       0.42297000       0.60930000
   174  H          0.01890000       0.57703000       0.10930000
   175  H          0.98110000       0.07703000       0.39070000
   176  H          0.51890000       0.92297000       0.89070000
   177  H          0.45810000       0.35928000       0.69330000
   178  H          0.04190000       0.64072000       0.19330000
   179  H          0.95810000       0.14072000       0.30670000
   180  H          0.54190000       0.85928000       0.80670000
   181  H          0.38920000       0.41310000       0.72440000
   182  H          0.11080000       0.58690000       0.22440000
   183  H          0.88920000       0.08690000       0.27560000
   184  H          0.61080000       0.91310000       0.77560000
   185  H          0.46210000       0.41508000       0.19530000
   186  H          0.03790000       0.58492000       0.69530000
   187  H          0.96210000       0.08492000       0.80470000
   188  H          0.53790000       0.91508000       0.30470000
   189  H          0.36220000       0.40210000       0.12140000
   190  H          0.13780000       0.59790000       0.62140000
   191  H          0.86220000       0.09790000       0.87860000
   192  H          0.63780000       0.90210000       0.37860000
   193  H          0.43315000       0.34919000       0.14254000
   194  H          0.06685000       0.65081000       0.64254000
   195  H          0.93315000       0.15081000       0.85746000
   196  H          0.56685000       0.84919000       0.35746000
   197  H          0.23125000       0.28403000       0.69551000
   198  H          0.26875000       0.71597000       0.19551000
   199  H          0.73125000       0.21597000       0.30449000
   200  H          0.76875000       0.78403000       0.80449000
   201  H          0.26345000       0.34813000       0.76481000
   202  H          0.23655000       0.65187000       0.26481000
   203  H          0.76345000       0.15187000       0.23519000
   204  H          0.73655000       0.84813000       0.73519000
   205  H          0.33355000       0.29463000       0.75311000
   206  H          0.16645000       0.70537000       0.25311000
   207  H          0.83355000       0.20537000       0.24689000
   208  H          0.66645000       0.79463000       0.74689000
