data_HXMIOD01
_symmetry_space_group_name_H-M    'P1'
_symmetry_Int_Tables_number       1
loop_
_symmetry_equiv_pos_site_id
_symmetry_equiv_pos_as_xyz
1 x,y,z
_cell_length_a                   6.083612
_cell_length_b                   16.6063
_cell_length_c                   14.7093
_cell_angle_alpha                90.0
_cell_angle_beta                 92.123
_cell_angle_gamma                90.0
loop_
_atom_site_label
_atom_site_type_symbol
_atom_site_fract_x
_atom_site_fract_y
_atom_site_fract_z
     1  I          0.28995600       0.62169200       0.49784300
     2  I          0.71004400       0.12169200       0.00215700
     3  I          0.71004400       0.37830800       0.50215700
     4  I          0.28995600       0.87830800      -0.00215700
     5  I          0.04222900       0.61720300       0.65309400
     6  I          0.95777100       0.11720300       0.84690600
     7  I          0.95777100       0.38279700       0.34690600
     8  I          0.04222900       0.88279700       0.15309400
     9  I          0.26479600       0.45997200       0.11444300
    10  I          0.73520400       0.95997200       0.38555700
    11  I          0.73520400       0.54002800       0.88555700
    12  I          0.26479600       0.04002800       0.61444300
    13  I          0.03622700       0.32857200       0.03832300
    14  I          0.96377300       0.82857200       0.46167700
    15  I          0.96377300       0.67142800       0.96167700
    16  I          0.03622700       0.17142800       0.53832300
    17  N          0.47147000       0.62873000       0.34943000
    18  N          0.52853000       0.12873000       0.15057000
    19  N          0.52853000       0.37127000       0.65057000
    20  N          0.47147000       0.87127000       0.84943000
    21  N          0.45337000       0.57143000       0.19733000
    22  N          0.54663000       0.07143000       0.30267000
    23  N          0.54663000       0.42857000       0.80267000
    24  N          0.45337000       0.92857000       0.69733000
    25  N          0.51178000       0.71523000       0.21804000
    26  N          0.48822000       0.21523000       0.28196000
    27  N          0.48822000       0.28477000       0.78196000
    28  N          0.51178000       0.78477000       0.71804000
    29  N          0.80297000       0.61993000       0.26154000
    30  N          0.19703000       0.11993000       0.23846000
    31  N          0.19703000       0.38007000       0.73846000
    32  N          0.80297000       0.88007000       0.76154000
    33  C          0.36769000       0.56624000       0.28964000
    34  C          0.63231000       0.06624000       0.21036000
    35  C          0.63231000       0.43376000       0.71036000
    36  C          0.36769000       0.93376000       0.78964000
    37  H          0.39884100       0.51217100       0.31530000
    38  H          0.60115900       0.01217100       0.18470000
    39  H          0.60115900       0.48782900       0.68470000
    40  H          0.39884100       0.98782900       0.81530000
    41  H          0.20612600       0.57397900       0.28657000
    42  H          0.79387400       0.07397900       0.21343000
    43  H          0.79387400       0.42602100       0.71343000
    44  H          0.20612600       0.92602100       0.78657000
    45  C          0.42621000       0.70933000       0.30874000
    46  C          0.57379000       0.20933000       0.19126000
    47  C          0.57379000       0.29067000       0.69126000
    48  C          0.42621000       0.79067000       0.80874000
    49  H          0.26545900       0.71897400       0.30542700
    50  H          0.73454100       0.21897400       0.19457300
    51  H          0.73454100       0.28102600       0.69457300
    52  H          0.26545900       0.78102600       0.80542700
    53  H          0.49488500       0.75142200       0.34802100
    54  H          0.50511500       0.25142200       0.15197900
    55  H          0.50511500       0.24857800       0.65197900
    56  H          0.49488500       0.74857800       0.84802100
    57  C          0.40811000       0.65374000       0.16044000
    58  C          0.59189000       0.15374000       0.33956000
    59  C          0.59189000       0.34626000       0.83956000
    60  C          0.40811000       0.84626000       0.66044000
    61  H          0.46437500       0.65773800       0.09830500
    62  H          0.53562500       0.15773800       0.40169500
    63  H          0.53562500       0.34226200       0.90169500
    64  H          0.46437500       0.84226200       0.59830500
    65  H          0.24724300       0.66291700       0.15641400
    66  H          0.75275700       0.16291700       0.34358600
    67  H          0.75275700       0.33708300       0.84358600
    68  H          0.24724300       0.83708300       0.65641400
    69  C          0.69689000       0.55924000       0.20294000
    70  C          0.30311000       0.05924000       0.29706000
    71  C          0.30311000       0.44076000       0.79706000
    72  C          0.69689000       0.94076000       0.70294000
    73  H          0.73020600       0.50483200       0.22735900
    74  H          0.26979400       0.00483200       0.27264100
    75  H          0.26979400       0.49516800       0.77264100
    76  H          0.73020600      -0.00483200       0.72735900
    77  H          0.75578100       0.56264400       0.14115100
    78  H          0.24421900       0.06264400       0.35884900
    79  H          0.24421900       0.43735600       0.85884900
    80  H          0.75578100       0.93735600       0.64115100
    81  C          0.74951000       0.70004000       0.22435000
    82  C          0.25049000       0.20004000       0.27565000
    83  C          0.25049000       0.29996000       0.77565000
    84  C          0.74951000       0.79996000       0.72435000
    85  H          0.82092000       0.74157700       0.26354900
    86  H          0.17908000       0.24157700       0.23645100
    87  H          0.17908000       0.25842300       0.73645100
    88  H          0.82092000       0.75842300       0.76354900
    89  H          0.80994300       0.70476700       0.16293300
    90  H          0.19005700       0.20476700       0.33706700
    91  H          0.19005700       0.29523300       0.83706700
    92  H          0.80994300       0.79523300       0.66293300
    93  C          0.71319000       0.61444000       0.35384000
    94  C          0.28681000       0.11444000       0.14616000
    95  C          0.28681000       0.38556000       0.64616000
    96  C          0.71319000       0.88556000       0.85384000
    97  H          0.78560500       0.65493000       0.39412800
    98  H          0.21439500       0.15493000       0.10587200
    99  H          0.21439500       0.34507000       0.60587200
   100  H          0.78560500       0.84507000       0.89412800
   101  H          0.74422800       0.56037900       0.37963800
   102  H          0.25577200       0.06037900       0.12036200
   103  H          0.25577200       0.43962100       0.62036200
   104  H          0.74422800       0.93962100       0.87963800
