data_HYQHCL
_symmetry_space_group_name_H-M    'P1'
_symmetry_Int_Tables_number       1
loop_
_symmetry_equiv_pos_site_id
_symmetry_equiv_pos_as_xyz
1 x,y,z
_cell_length_a                   16.6501
_cell_length_b                   16.6501
_cell_length_c                   5.4531
_cell_angle_alpha                90.0
_cell_angle_beta                 90.0
_cell_angle_gamma                120.0
loop_
_atom_site_label
_atom_site_type_symbol
_atom_site_fract_x
_atom_site_fract_y
_atom_site_fract_z
     1  C          0.25630000       0.13200000       0.31580000
     2  C          0.58963333       0.79866667      -0.01753333
     3  C          0.92296667       0.46533333       0.64913333
     4  C          0.86800000       0.12430000       0.31580000
     5  C          0.87570000       0.74370000       0.31580000
     6  C          0.20133333       0.79096667      -0.01753333
     7  C          0.20903333       0.41036667      -0.01753333
     8  C          0.53466667       0.45763333       0.64913333
     9  C          0.54236667       0.07703333       0.64913333
    10  C          0.26130000       0.18800000       0.11950000
    11  C          0.59463333       0.85466667       0.78616667
    12  C          0.92796667       0.52133333       0.45283333
    13  C          0.81200000       0.07330000       0.11950000
    14  C          0.92670000       0.73870000       0.11950000
    15  C          0.14533333       0.73996667       0.78616667
    16  C          0.26003333       0.40536667       0.78616667
    17  C          0.47866667       0.40663333       0.45283333
    18  C          0.59336667       0.07203333       0.45283333
    19  C          0.33600000       0.22200000       0.95730000
    20  C          0.66933333       0.88866667       0.62396667
    21  C          0.00266667       0.55533333       0.29063333
    22  C          0.77800000       0.11400000       0.95730000
    23  C          0.88600000       0.66400000       0.95730000
    24  C          0.11133333       0.78066667       0.62396667
    25  C          0.21933333       0.33066667       0.62396667
    26  C          0.44466667       0.44733333       0.29063333
    27  C          0.55266667      -0.00266667       0.29063333
    28  C          0.40570000       0.19980000      -0.00860000
    29  C          0.73903333       0.86646667       0.65806667
    30  C          0.07236667       0.53313333       0.32473333
    31  C          0.80020000       0.20590000      -0.00860000
    32  C          0.79410000       0.59430000      -0.00860000
    33  C          0.13353333       0.87256667       0.65806667
    34  C          0.12743333       0.26096667       0.65806667
    35  C          0.46686667       0.53923333       0.32473333
    36  C          0.46076667       0.92763333       0.32473333
    37  C          0.40070000       0.14370000       0.18760000
    38  C          0.73403333       0.81036667       0.85426667
    39  C          0.06736667       0.47703333       0.52093333
    40  C          0.85630000       0.25700000       0.18760000
    41  C          0.74300000       0.59930000       0.18760000
    42  C          0.18963333       0.92366667       0.85426667
    43  C          0.07633333       0.26596667       0.85426667
    44  C          0.52296667       0.59033333       0.52093333
    45  C          0.40966667       0.93263333       0.52093333
    46  C          0.32600000       0.10980000       0.34980000
    47  C          0.65933333       0.77646667       0.01646667
    48  C         -0.00733333       0.44313333       0.68313333
    49  C          0.89020000       0.21620000       0.34980000
    50  C          0.78380000       0.67400000       0.34980000
    51  C          0.22353333       0.88286667       0.01646667
    52  C          0.11713333       0.34066667       0.01646667
    53  C          0.55686667       0.54953333       0.68313333
    54  C          0.45046667       0.00733333       0.68313333
    55  O          0.18250000       0.09290000       0.47010000
    56  O          0.51583333       0.75956667       0.13676667
    57  O          0.84916667       0.42623333       0.80343333
    58  O          0.90710000       0.08960000       0.47010000
    59  O          0.91040000       0.81750000       0.47010000
    60  O          0.24043333       0.75626667       0.13676667
    61  O          0.24373333       0.48416667       0.13676667
    62  O          0.57376667       0.42293333       0.80343333
    63  O          0.57706667       0.15083333       0.80343333
    64  O          0.47660000       0.23290000       0.82130000
    65  O          0.80993333       0.89956667       0.48796667
    66  O          0.14326667       0.56623333       0.15463333
    67  O          0.76710000       0.24370000       0.82130000
    68  O          0.75630000       0.52340000       0.82130000
    69  O          0.10043333       0.91036667       0.48796667
    70  O          0.08963333       0.19006667       0.48796667
    71  O          0.43376667       0.57703333       0.15463333
    72  O          0.42296667       0.85673333       0.15463333
    73  H          0.14040000       0.12060000       0.49630000
    74  H          0.47373333       0.78726667       0.16296667
    75  H          0.80706667       0.45393333       0.82963333
    76  H          0.87940000       0.01980000       0.49630000
    77  H          0.98020000       0.85960000       0.49630000
    78  H          0.21273333       0.68646667       0.16296667
    79  H          0.31353333       0.52626667       0.16296667
    80  H          0.54606667       0.35313333       0.82963333
    81  H          0.64686667       0.19293333       0.82963333
    82  H          0.20740000       0.19500000       0.06410000
    83  H          0.54073333       0.86166667       0.73076667
    84  H          0.87406667       0.52833333       0.39743333
    85  H          0.80500000       0.01240000       0.06410000
    86  H         -0.01240000       0.79260000       0.06410000
    87  H          0.13833333       0.67906667       0.73076667
    88  H          0.32093333       0.45926667       0.73076667
    89  H          0.47166667       0.34573333       0.39743333
    90  H          0.65426667       0.12593333       0.39743333
    91  H          0.33100000       0.24910000       0.81740000
    92  H          0.66433333       0.91576667       0.48406667
    93  H         -0.00233333       0.58243333       0.15073333
    94  H          0.75090000       0.08190000       0.81740000
    95  H          0.91810000       0.66900000       0.81740000
    96  H          0.08423333       0.74856667       0.48406667
    97  H          0.25143333       0.33566667       0.48406667
    98  H          0.41756667       0.41523333       0.15073333
    99  H          0.58476667       0.00233333       0.15073333
   100  H          0.52150000       0.20920000       0.81340000
   101  H          0.85483333       0.87586667       0.48006667
   102  H          0.18816667       0.54253333       0.14673333
   103  H          0.79080000       0.31230000       0.81340000
   104  H          0.68770000       0.47850000       0.81340000
   105  H          0.12413333       0.97896667       0.48006667
   106  H          0.02103333       0.14516667       0.48006667
   107  H          0.45746667       0.64563333       0.14673333
   108  H          0.35436667       0.81183333       0.14673333
   109  H          0.44910000       0.12320000       0.19800000
   110  H          0.78243333       0.78986667       0.86466667
   111  H          0.11576667       0.45653333       0.53133333
   112  H          0.87680000       0.32590000       0.19800000
   113  H          0.67410000       0.55090000       0.19800000
   114  H          0.21013333      -0.00743333       0.86466667
   115  H          0.00743333       0.21756667       0.86466667
   116  H          0.54346667       0.65923333       0.53133333
   117  H          0.34076667       0.88423333       0.53133333
   118  H          0.32150000       0.06960000       0.51930000
   119  H          0.65483333       0.73626667       0.18596667
   120  H         -0.01183333       0.40293333       0.85263333
   121  H          0.93040000       0.25190000       0.51930000
   122  H          0.74810000       0.67850000       0.51930000
   123  H          0.26373333       0.91856667       0.18596667
   124  H          0.08143333       0.34516667       0.18596667
   125  H          0.59706667       0.58523333       0.85263333
   126  H          0.41476667       0.01183333       0.85263333
   127  Cl        -0.00000000      -0.00000000       0.00000000
   128  Cl         0.33333333       0.66666667       0.66666667
   129  Cl         0.66666667       0.33333333       0.33333333
