data_IBIYUP
_symmetry_space_group_name_H-M    'P1'
_symmetry_Int_Tables_number       1
loop_
_symmetry_equiv_pos_site_id
_symmetry_equiv_pos_as_xyz
1 x,y,z
_cell_length_a                   6.70652
_cell_length_b                   18.59696
_cell_length_c                   7.10062
_cell_angle_alpha                90.0
_cell_angle_beta                 99.5002
_cell_angle_gamma                90.0
loop_
_atom_site_label
_atom_site_type_symbol
_atom_site_fract_x
_atom_site_fract_y
_atom_site_fract_z
     1  Br         0.86597500       0.33833200       0.47820400
     2  Br         0.36597500       0.66166800       0.97820400
     3  N          0.05075000       0.39888180       0.64154000
     4  N          0.55075000       0.60111820       0.14154000
     5  C          0.01516000       0.42252000       0.81825000
     6  C          0.51516000       0.57748000       0.31825000
     7  O          0.87085000       0.40425180       0.88824000
     8  O          0.37085000       0.59574820       0.38824000
     9  C          0.18236000       0.47282000       0.89705000
    10  C          0.68236000       0.52718000       0.39705000
    11  H          0.24980000       0.45640000       0.02440000
    12  H          0.74980000       0.54360000       0.52440000
    13  H          0.12920000       0.52190000       0.90900000
    14  H          0.62920000       0.47810000       0.40900000
    15  C          0.33146000       0.47172000       0.75356000
    16  C          0.83146000       0.52828000       0.25356000
    17  H          0.35140000       0.52060000       0.70510000
    18  H          0.85140000       0.47940000       0.20510000
    19  H          0.46410000       0.45200000       0.81330000
    20  H          0.96410000       0.54800000       0.31330000
    21  C          0.23146000       0.42332000       0.59456000
    22  C          0.73146000       0.57668000       0.09456000
    23  O          0.29445000       0.40709190       0.45025000
    24  O          0.79445000       0.59290810       0.95025000
    25  Br         0.75245500       0.13545200       0.73807400
    26  Br         0.25245500       0.86454800       0.23807400
    27  N          0.87035000       0.08918180       0.54024000
    28  N          0.37035000       0.91081820       0.04024000
    29  C          0.05966000       0.10682000       0.49895000
    30  C          0.55966000       0.89318000      -0.00105000
    31  O          0.17485000       0.14924170       0.59104000
    32  O          0.67485000       0.85075830       0.09104000
    33  C          0.08806000       0.06652000       0.32195000
    34  C          0.58806000       0.93348000       0.82195000
    35  H          0.20500000       0.03350000       0.34920000
    36  H          0.70500000       0.96650000       0.84920000
    37  H          0.11130000       0.10030000       0.22000000
    38  H          0.61130000       0.89970000       0.72000000
    39  C          0.89286000       0.02442000       0.26175000
    40  C          0.39286000       0.97558000       0.76175000
    41  H          0.82580000       0.03930000       0.13280000
    42  H          0.32580000       0.96070000       0.63280000
    43  H          0.92030000       0.97210000       0.26050000
    44  H          0.42030000       0.02790000       0.76050000
    45  C          0.76266000       0.04242000       0.40935000
    46  C          0.26266000       0.95758000       0.90935000
    47  O          0.59075000       0.02181180       0.41344000
    48  O          0.09075000       0.97818820       0.91344000
    49  N          0.30705000       0.21004180       0.14224000
    50  N          0.80705000       0.78995820       0.64224000
    51  C          0.22905000       0.27212000       0.02495000
    52  C          0.72905000       0.72788000       0.52495000
    53  H          0.13120000       0.25500000       0.91410000
    54  H          0.63120000       0.74500000       0.41410000
    55  H          0.15560000       0.30420000       0.10130000
    56  H          0.65560000       0.69580000       0.60130000
    57  N          0.38865000       0.31315180       0.95594000
    58  N          0.88865000       0.68684820       0.45594000
    59  C          0.49556000       0.26472000       0.84375000
    60  C         -0.00444000       0.73528000       0.34375000
    61  H          0.60510000       0.29150000       0.79690000
    62  H          0.10510000       0.70850000       0.29690000
    63  H          0.40040000       0.24740000       0.73130000
    64  H          0.90040000       0.75260000       0.23130000
    65  N          0.58385000       0.20158170       0.95854000
    66  N          0.08385000       0.79841830       0.45854000
    67  C          0.41446000       0.16272000       0.02735000
    68  C          0.91446000       0.83728000       0.52735000
    69  H          0.31860000       0.14470000       0.91630000
    70  H          0.81860000       0.85530000       0.41630000
    71  H          0.46900000       0.12080000       0.10520000
    72  H          0.96900000       0.87920000       0.60520000
    73  N          0.61955000       0.27634180       0.24414000
    74  N          0.11955000       0.72365820       0.74414000
    75  C          0.53176000       0.33752000       0.12235000
    76  C          0.03176000       0.66248000       0.62235000
    77  H          0.46140000       0.37040000       0.19940000
    78  H          0.96140000       0.62960000       0.69940000
    79  H          0.64220000       0.36480000       0.07830000
    80  H          0.14220000       0.63520000       0.57830000
    81  C          0.44996000       0.23652000       0.30715000
    82  C          0.94996000       0.76348000       0.80715000
    83  H          0.50430000       0.19530000       0.38790000
    84  H          0.00430000       0.80470000       0.88790000
    85  H          0.37820000       0.26860000       0.38490000
    86  H          0.87820000       0.73140000       0.88490000
    87  C          0.72256000       0.22822000       0.12635000
    88  C          0.22256000       0.77178000       0.62635000
    89  H          0.83530000       0.25450000       0.08330000
    90  H          0.33530000       0.74550000       0.58330000
    91  H          0.78020000       0.18690000       0.20460000
    92  H          0.28020000       0.81310000       0.70460000
