data_IBIYOJ
_symmetry_space_group_name_H-M    'P1'
_symmetry_Int_Tables_number       1
loop_
_symmetry_equiv_pos_site_id
_symmetry_equiv_pos_as_xyz
1 x,y,z
_cell_length_a                   18.07365
_cell_length_b                   6.14902
_cell_length_c                   23.50576
_cell_angle_alpha                90.0
_cell_angle_beta                 97.34401
_cell_angle_gamma                90.0
loop_
_atom_site_label
_atom_site_type_symbol
_atom_site_fract_x
_atom_site_fract_y
_atom_site_fract_z
     1  Br         0.18445414       0.76391400       0.87126110
     2  Br         0.31554586       0.26391400       0.12873890
     3  Br         0.81554586       0.23608600       0.12873890
     4  Br         0.68445414       0.73608600       0.87126110
     5  N          0.16145110       0.93673000       0.93556800
     6  N          0.33854890       0.43673000       0.06443200
     7  N          0.83854890       0.06327000       0.06443200
     8  N          0.66145110       0.56327000       0.93556800
     9  C          0.20026140       0.12374000       0.95441100
    10  C          0.29973860       0.62374000       0.04558900
    11  C          0.79973860       0.87626000       0.04558900
    12  C          0.70026140       0.37626000       0.95441100
    13  O          0.25463100       0.19323000       0.93503700
    14  O          0.24536900       0.69323000       0.06496300
    15  O          0.74536900       0.80677000       0.06496300
    16  O          0.75463100       0.30677000       0.93503700
    17  C          0.16246140       0.22004000       0.00214110
    18  C          0.33753860       0.72004000      -0.00214110
    19  C          0.83753860       0.77996000      -0.00214110
    20  C          0.66246140       0.27996000       0.00214110
    21  H          0.13980000       0.36230000       0.99050000
    22  H          0.36020000       0.86230000       0.00950000
    23  H          0.86020000       0.63770000       0.00950000
    24  H          0.63980000       0.13770000       0.99050000
    25  H          0.19870000       0.24070000       0.03700000
    26  H          0.30130000       0.74070000       0.96300000
    27  H          0.80130000       0.75930000       0.96300000
    28  H          0.69870000       0.25930000       0.03700000
    29  C          0.10261150       0.05684000       0.01320110
    30  C          0.39738850       0.55684000       0.98679890
    31  C          0.89738850       0.94316000       0.98679890
    32  C          0.60261150       0.44316000       0.01320110
    33  H          0.11370000      -0.00730000       0.05200000
    34  H          0.38630000       0.49270000       0.94800000
    35  H          0.88630000       0.00730000       0.94800000
    36  H          0.61370000       0.50730000       0.05200000
    37  H          0.05300000       0.12710000       0.00980000
    38  H          0.44700000       0.62710000       0.99020000
    39  H          0.94700000       0.87290000       0.99020000
    40  H          0.55300000       0.37290000       0.00980000
    41  C          0.10480140       0.88494000       0.96763100
    42  C          0.39519860       0.38494000       0.03236900
    43  C          0.89519860       0.11506000       0.03236900
    44  C          0.60480140       0.61506000       0.96763100
    45  O          0.06421110       0.72653000       0.95925800
    46  O          0.43578890       0.22653000       0.04074200
    47  O          0.93578890       0.27347000       0.04074200
    48  O          0.56421110       0.77347000       0.95925800
    49  Br         0.31120314       0.19513400       0.63113610
    50  Br         0.18879686       0.69513400       0.36886390
    51  Br         0.68879686       0.80486600       0.36886390
    52  Br         0.81120314       0.30486600       0.63113610
    53  N          0.33686120       0.03093000       0.56630800
    54  N          0.16313880       0.53093000       0.43369200
    55  N          0.66313880       0.96907000       0.43369200
    56  N          0.83686120       0.46907000       0.56630800
    57  C          0.39227140       0.09024000       0.53390100
    58  C          0.10772860       0.59024000       0.46609900
    59  C          0.60772860       0.90976000       0.46609900
    60  C          0.89227140       0.40976000       0.53390100
    61  O          0.43068110       0.25233000       0.54203800
    62  O          0.06931890       0.75233000       0.45796200
    63  O          0.56931890       0.74767000       0.45796200
    64  O          0.93068110       0.24767000       0.54203800
    65  C          0.39583150       0.92116000       0.48770100
    66  C          0.10416850       0.42116000       0.51229900
    67  C          0.60416850       0.07884000       0.51229900
    68  C          0.89583150       0.57884000       0.48770100
    69  H          0.44610000       0.85520000       0.49060000
    70  H          0.05390000       0.35520000       0.50940000
    71  H          0.55390000       0.14480000       0.50940000
    72  H          0.94610000       0.64480000       0.49060000
    73  H          0.38370000      -0.01370000       0.44910000
    74  H          0.11630000       0.48630000       0.55090000
    75  H          0.61630000       0.01370000       0.55090000
    76  H          0.88370000       0.51370000       0.44910000
    77  C          0.33767150       0.75186000       0.49875110
    78  C          0.16232850       0.25186000       0.50124890
    79  C          0.66232850       0.24814000       0.50124890
    80  C          0.83767150       0.74814000       0.49875110
    81  H          0.30070000       0.73200000       0.46420000
    82  H          0.19930000       0.23200000       0.53580000
    83  H          0.69930000       0.26800000       0.53580000
    84  H          0.80070000       0.76800000       0.46420000
    85  H          0.36170000       0.61020000       0.50910000
    86  H          0.13830000       0.11020000       0.49090000
    87  H          0.63830000       0.38980000       0.49090000
    88  H          0.86170000       0.88980000       0.50910000
    89  C          0.30056140       0.83986000       0.54783100
    90  C          0.19943860       0.33986000       0.45216900
    91  C          0.69943860       0.16014000       0.45216900
    92  C          0.80056140       0.66014000       0.54783100
    93  O          0.24846110       0.76207000       0.56857800
    94  O          0.25153890       0.26207000       0.43142200
    95  O          0.75153890       0.23793000       0.43142200
    96  O          0.74846110       0.73793000       0.56857800
    97  N          0.27134120       0.38253000       0.70871800
    98  N          0.22865880       0.88253000       0.29128200
    99  N          0.72865880       0.61747000       0.29128200
   100  N          0.77134120       0.11747000       0.70871800
   101  C          0.25062190       0.21864000       0.74925120
   102  C          0.24937810       0.71864000       0.25074880
   103  C          0.74937810       0.78136000       0.25074880
   104  C          0.75062190       0.28136000       0.74925120
   105  H          0.29550000       0.13530000       0.76500000
   106  H          0.20450000       0.63530000       0.23500000
   107  H          0.70450000       0.86470000       0.23500000
   108  H          0.79550000       0.36470000       0.76500000
   109  H          0.21430000       0.11560000       0.72890000
   110  H          0.28570000       0.61560000       0.27110000
   111  H          0.78570000       0.88440000       0.27110000
   112  H          0.71430000       0.38440000       0.72890000
   113  C          0.21586170       0.32724000       0.79890110
   114  C          0.28413830       0.82724000       0.20109890
   115  C          0.78413830       0.67276000       0.20109890
   116  C          0.71586170       0.17276000       0.79890110
   117  H          0.16300000       0.28270000       0.79760000
   118  H          0.33700000       0.78270000       0.20240000
   119  H          0.83700000       0.71730000       0.20240000
   120  H          0.66300000       0.21730000       0.79760000
   121  H          0.24300000       0.28050000       0.83620000
   122  H          0.25700000       0.78050000       0.16380000
   123  H          0.75700000       0.71950000       0.16380000
   124  H          0.74300000       0.21950000       0.83620000
   125  N          0.22073120       0.56593000       0.79317800
   126  N          0.27926880       0.06593000       0.20682200
   127  N          0.77926880       0.43407000       0.20682200
   128  N          0.72073120       0.93407000       0.79317800
   129  C          0.17601150       0.63014000       0.73885100
   130  C          0.32398850       0.13014000       0.26114900
   131  C          0.82398850       0.36986000       0.26114900
   132  C          0.67601150       0.86986000       0.73885100
   133  H          0.17950000       0.78930000       0.73360000
   134  H          0.32050000       0.28930000       0.26640000
   135  H          0.82050000       0.21070000       0.26640000
   136  H          0.67950000       0.71070000       0.73360000
   137  H          0.12300000       0.59270000       0.74020000
   138  H          0.37700000       0.09270000       0.25980000
   139  H          0.87700000       0.40730000       0.25980000
   140  H          0.62300000       0.90730000       0.74020000
   141  C          0.20463160       0.51155000       0.68781110
   142  C          0.29536840       0.01155000       0.31218890
   143  C          0.79536840       0.48845000       0.31218890
   144  C          0.70463160      -0.01155000       0.68781110
   145  H          0.16510000       0.41470000       0.66890000
   146  H          0.33490000       0.91470000       0.33110000
   147  H          0.83490000       0.58530000       0.33110000
   148  H          0.66510000       0.08530000       0.66890000
   149  H          0.21720000       0.61930000       0.65930000
   150  H          0.28280000       0.11930000       0.34070000
   151  H          0.78280000       0.38070000       0.34070000
   152  H          0.71720000       0.88070000       0.65930000
   153  C          0.32871160       0.52585000       0.73861130
   154  C          0.17128840       0.02585000       0.26138870
   155  C          0.67128840       0.47415000       0.26138870
   156  C          0.82871160       0.97415000       0.73861130
   157  H          0.34060000       0.64370000       0.71260000
   158  H          0.15940000       0.14370000       0.28740000
   159  H          0.65940000       0.35630000       0.28740000
   160  H          0.84060000       0.85630000       0.71260000
   161  H          0.37490000       0.44180000       0.75040000
   162  H          0.12510000       0.94180000       0.24960000
   163  H          0.62510000       0.55820000       0.24960000
   164  H          0.87490000       0.05820000       0.75040000
   165  C          0.29972140       0.62405000       0.79200110
   166  C          0.20027860       0.12405000       0.20799890
   167  C          0.70027860       0.37595000       0.20799890
   168  C          0.79972140       0.87595000       0.79200110
   169  H          0.33000000       0.56880000       0.82710000
   170  H          0.17000000       0.06880000       0.17290000
   171  H          0.67000000       0.43120000       0.17290000
   172  H          0.83000000       0.93120000       0.82710000
   173  H          0.30490000       0.78420000       0.79140000
   174  H          0.19510000       0.28420000       0.20860000
   175  H          0.69510000       0.21580000       0.20860000
   176  H          0.80490000       0.71580000       0.79140000
   177  C          0.98131150       0.45184000       0.86120110
   178  C          0.51868850       0.95184000       0.13879890
   179  C          0.01868850       0.54816000       0.13879890
   180  C          0.48131150       0.04816000       0.86120110
   181  H          0.01630000       0.53560000       0.88950000
   182  H          0.48370000       0.03560000       0.11050000
   183  H          0.98370000       0.46440000       0.11050000
   184  H          0.51630000       0.96440000       0.88950000
   185  Cl         0.97447400       0.58401120       0.79396300
   186  Cl         0.52552600       0.08401120       0.20603700
   187  Cl         0.02552600       0.41598880       0.20603700
   188  Cl         0.47447400       0.91598880       0.79396300
   189  Cl         0.01696500       0.18653130       0.85509300
   190  Cl         0.48303500       0.68653130       0.14490700
   191  Cl         0.98303500       0.81346870       0.14490700
   192  Cl         0.51696500       0.31346870       0.85509300
   193  Cl         0.89368400       0.43918120       0.88598300
   194  Cl         0.60631600       0.93918120       0.11401700
   195  Cl         0.10631600       0.56081880       0.11401700
   196  Cl         0.39368400       0.06081880       0.88598300
   197  C          0.51791150       0.52254000       0.63867110
   198  C          0.98208850       0.02254000       0.36132890
   199  C          0.48208850       0.47746000       0.36132890
   200  C          0.01791150      -0.02254000       0.63867110
   201  H          0.48340000       0.43870000       0.61000000
   202  H          0.01660000       0.93870000       0.39000000
   203  H          0.51660000       0.56130000       0.39000000
   204  H          0.98340000       0.06130000       0.61000000
   205  Cl         0.52709400       0.38366130       0.70484300
   206  Cl         0.97290600       0.88366130       0.29515700
   207  Cl         0.47290600       0.61633870       0.29515700
   208  Cl         0.02709400       0.11633870       0.70484300
   209  Cl         0.60498400       0.54661120       0.61337300
   210  Cl         0.89501600       0.04661120       0.38662700
   211  Cl         0.39501600       0.45338880       0.38662700
   212  Cl         0.10498400       0.95338880       0.61337300
   213  Cl         0.47960500       0.78386130       0.64707300
   214  Cl         0.02039500       0.28386130       0.35292700
   215  Cl         0.52039500       0.21613870       0.35292700
   216  Cl         0.97960500       0.71613870       0.64707300
