data_IBIZEA
_symmetry_space_group_name_H-M    'P1'
_symmetry_Int_Tables_number       1
loop_
_symmetry_equiv_pos_site_id
_symmetry_equiv_pos_as_xyz
1 x,y,z
_cell_length_a                   30.86578
_cell_length_b                   6.107101
_cell_length_c                   8.23392
_cell_angle_alpha                90.0
_cell_angle_beta                 95.3632
_cell_angle_gamma                90.0
loop_
_atom_site_label
_atom_site_type_symbol
_atom_site_fract_x
_atom_site_fract_y
_atom_site_fract_z
     1  I          0.90561540       0.49260200       0.01604716
     2  I          0.09438460       0.49260200       0.48395284
     3  I          0.40561540      -0.00739800       0.01604716
     4  I          0.59438460      -0.00739800       0.48395284
     5  I          0.09438460       0.50739800      -0.01604716
     6  I          0.90561540       0.50739800       0.51604716
     7  I          0.59438460       0.00739800      -0.01604716
     8  I          0.40561540       0.00739800       0.51604716
     9  N          0.85501600       0.68383000       0.90898000
    10  N          0.14498400       0.68383000       0.59102000
    11  N          0.35501600       0.18383000       0.90898000
    12  N          0.64498400       0.18383000       0.59102000
    13  N          0.14498400       0.31617000       0.09102000
    14  N          0.85501600       0.31617000       0.40898000
    15  N          0.64498400       0.81617000       0.09102000
    16  N          0.35501600       0.81617000       0.40898000
    17  C          0.86241700       0.87973000       0.83007000
    18  C          0.13758300       0.87973000       0.66993000
    19  C          0.36241700       0.37973000       0.83007000
    20  C          0.63758300       0.37973000       0.66993000
    21  C          0.13758300       0.12027000       0.16993000
    22  C          0.86241700       0.12027000       0.33007000
    23  C          0.63758300       0.62027000       0.16993000
    24  C          0.36241700       0.62027000       0.33007000
    25  O          0.89799600       0.96133000       0.82508000
    26  O          0.10200400       0.96133000       0.67492000
    27  O          0.39799600       0.46133000       0.82508000
    28  O          0.60200400       0.46133000       0.67492000
    29  O          0.10200400       0.03867000       0.17492000
    30  O          0.89799600       0.03867000       0.32508000
    31  O          0.60200400       0.53867000       0.17492000
    32  O          0.39799600       0.53867000       0.32508000
    33  C          0.81913900       0.96644000       0.75687000
    34  C          0.18086100       0.96644000       0.74313000
    35  C          0.31913900       0.46644000       0.75687000
    36  C          0.68086100       0.46644000       0.74313000
    37  C          0.18086100       0.03356000       0.24313000
    38  C          0.81913900       0.03356000       0.25687000
    39  C          0.68086100       0.53356000       0.24313000
    40  C          0.31913900       0.53356000       0.25687000
    41  H          0.81810000       0.97080000       0.63640000
    42  H          0.18190000       0.97080000       0.86360000
    43  H          0.31810000       0.47080000       0.63640000
    44  H          0.68190000       0.47080000       0.86360000
    45  H          0.18190000       0.02920000       0.36360000
    46  H          0.81810000       0.02920000       0.13640000
    47  H          0.68190000       0.52920000       0.36360000
    48  H          0.31810000       0.52920000       0.13640000
    49  H          0.81400000       0.11590000       0.79750000
    50  H          0.18600000       0.11590000       0.70250000
    51  H          0.31400000       0.61590000       0.79750000
    52  H          0.68600000       0.61590000       0.70250000
    53  H          0.18600000       0.88410000       0.20250000
    54  H          0.81400000       0.88410000       0.29750000
    55  H          0.68600000       0.38410000       0.20250000
    56  H          0.31400000       0.38410000       0.29750000
    57  C          0.78536700       0.80734000       0.81117000
    58  C          0.21463300       0.80734000       0.68883000
    59  C          0.28536700       0.30734000       0.81117000
    60  C          0.71463300       0.30734000       0.68883000
    61  C          0.21463300       0.19266000       0.18883000
    62  C          0.78536700       0.19266000       0.31117000
    63  C          0.71463300       0.69266000       0.18883000
    64  C          0.28536700       0.69266000       0.31117000
    65  H          0.76590000       0.88130000       0.88290000
    66  H          0.23410000       0.88130000       0.61710000
    67  H          0.26590000       0.38130000       0.88290000
    68  H          0.73410000       0.38130000       0.61710000
    69  H          0.23410000       0.11870000       0.11710000
    70  H          0.76590000       0.11870000       0.38290000
    71  H          0.73410000       0.61870000       0.11710000
    72  H          0.26590000       0.61870000       0.38290000
    73  H          0.76750000       0.74590000       0.71580000
    74  H          0.23250000       0.74590000       0.78420000
    75  H          0.26750000       0.24590000       0.71580000
    76  H          0.73250000       0.24590000       0.78420000
    77  H          0.23250000       0.25410000       0.28420000
    78  H          0.76750000       0.25410000       0.21580000
    79  H          0.73250000       0.75410000       0.28420000
    80  H          0.26750000       0.75410000       0.21580000
    81  C          0.81143700       0.62934000       0.90287000
    82  C          0.18856300       0.62934000       0.59713000
    83  C          0.31143700       0.12934000       0.90287000
    84  C          0.68856300       0.12934000       0.59713000
    85  C          0.18856300       0.37066000       0.09713000
    86  C          0.81143700       0.37066000       0.40287000
    87  C          0.68856300       0.87066000       0.09713000
    88  C          0.31143700       0.87066000       0.40287000
    89  O          0.79748600       0.46533000       0.96398000
    90  O          0.20251400       0.46533000       0.53602000
    91  O          0.29748600       0.96533000       0.96398000
    92  O          0.70251400       0.96533000       0.53602000
    93  O          0.20251400       0.53467000       0.03602000
    94  O          0.79748600       0.53467000       0.46398000
    95  O          0.70251400       0.03467000       0.03602000
    96  O          0.29748600       0.03467000       0.46398000
    97  N         -0.00000000       0.93355000       0.25000000
    98  N          0.50000000       0.43355000       0.25000000
    99  N          0.00000000       0.06645000       0.75000000
   100  N          0.50000000       0.56645000       0.75000000
   101  C          0.97106800       0.05234000       0.15613000
   102  C          0.02893200       0.05234000       0.34387000
   103  C          0.47106800       0.55234000       0.15613000
   104  C          0.52893200       0.55234000       0.34387000
   105  C          0.02893200       0.94766000       0.84387000
   106  C          0.97106800       0.94766000       0.65613000
   107  C          0.52893200       0.44766000       0.84387000
   108  C          0.47106800       0.44766000       0.65613000
   109  H          0.94980000       0.97520000       0.08720000
   110  H          0.05020000       0.97520000       0.41280000
   111  H          0.44980000       0.47520000       0.08720000
   112  H          0.55020000       0.47520000       0.41280000
   113  H          0.05020000       0.02480000       0.91280000
   114  H          0.94980000       0.02480000       0.58720000
   115  H          0.55020000       0.52480000       0.91280000
   116  H          0.44980000       0.52480000       0.58720000
   117  N          0.96978600       0.27053000       0.15192000
   118  N          0.03021400       0.27053000       0.34808000
   119  N          0.46978600       0.77053000       0.15192000
   120  N          0.53021400       0.77053000       0.34808000
   121  N          0.03021400       0.72947000       0.84808000
   122  N          0.96978600       0.72947000       0.65192000
   123  N          0.53021400       0.22947000       0.84808000
   124  N          0.46978600       0.22947000       0.65192000
   125  C         -0.00000000       0.37295000       0.25000000
   126  C          0.50000000       0.87295000       0.25000000
   127  C          0.00000000       0.62705000       0.75000000
   128  C          0.50000000       0.12705000       0.75000000
   129  H         -0.00000000       0.52840000       0.25000000
   130  H          0.50000000       0.02840000       0.25000000
   131  H          0.00000000       0.47160000       0.75000000
   132  H          0.50000000       0.97160000       0.75000000
