data_IBODOT
_symmetry_space_group_name_H-M    'P1'
_symmetry_Int_Tables_number       1
loop_
_symmetry_equiv_pos_site_id
_symmetry_equiv_pos_as_xyz
1 x,y,z
_cell_length_a                   10.5263
_cell_length_b                   21.6803
_cell_length_c                   12.1112
_cell_angle_alpha                90.0
_cell_angle_beta                 115.482
_cell_angle_gamma                90.0
loop_
_atom_site_label
_atom_site_type_symbol
_atom_site_fract_x
_atom_site_fract_y
_atom_site_fract_z
     1  P          0.62972000       0.80737700       0.57544140
     2  P          0.37028000       0.30737700       0.42455860
     3  O          0.48204000       0.81082000       0.48664000
     4  O          0.51796000       0.31082000       0.51336000
     5  N          0.72748000       0.77934000       0.50927000
     6  N          0.27252000       0.27934000       0.49073000
     7  C          0.67201300       0.75328000       0.39461100
     8  C          0.32798700       0.25328000       0.60538900
     9  H          0.69415000       0.77854000       0.34033800
    10  H          0.30585000       0.27854000       0.65966200
    11  H          0.57162200       0.75017200       0.36446500
    12  H          0.42837800       0.25017200       0.63553500
    13  H          0.71113000       0.71283000       0.39912700
    14  H          0.28887000       0.21283000       0.60087300
    15  C          0.87031200       0.77741100       0.56091100
    16  C          0.12968800       0.27741100       0.43908900
    17  H          0.90081200       0.73883600       0.54216000
    18  H          0.09918800       0.23883600       0.45784000
    19  H          0.90581300       0.78169800       0.64802000
    20  H          0.09418700       0.28169800       0.35198000
    21  H          0.90541300       0.81065400       0.52914000
    22  H          0.09458700       0.31065400       0.47086000
    23  N          0.64788000       0.76383000       0.68846000
    24  N          0.35212000       0.26383000       0.31154000
    25  C          0.78641200       0.75368000       0.79431000
    26  C          0.21358800       0.25368000       0.20569000
    27  H          0.77191200       0.73878500       0.86275500
    28  H          0.22808800       0.23878500       0.13724500
    29  H          0.83758200       0.79181800       0.81611000
    30  H          0.16241800       0.29181800       0.18389000
    31  H          0.83918000       0.72376200       0.77276000
    32  H          0.16082000       0.22376200       0.22724000
    33  C          0.54301300       0.72665000       0.69108000
    34  C          0.45698700       0.22665000       0.30892000
    35  H          0.55985400       0.71933500       0.77438000
    36  H          0.44014600       0.21933500       0.22562000
    37  H          0.54266200       0.68801600       0.65197300
    38  H          0.45733800       0.18801600       0.34802700
    39  H          0.45361700       0.74661800       0.64847100
    40  H          0.54638300       0.24661800       0.35152900
    41  N          0.70517000       0.87143000       0.63706000
    42  N          0.29483000       0.37143000       0.36294000
    43  C          0.67691400       0.90407000       0.71871100
    44  C          0.32308600       0.40407000       0.28128900
    45  H          0.70015000       0.94661300       0.71539500
    46  H          0.29985000       0.44661300       0.28460500
    47  H          0.73211000       0.88834300       0.79941900
    48  H          0.26789000       0.38834300       0.20058100
    49  H          0.57873300       0.90045600       0.69948000
    50  H          0.42126700       0.40045600       0.30052000
    51  C          0.73891600       0.91256000       0.55271100
    52  C          0.26108400       0.41256000       0.44728900
    53  H          0.79812000       0.94573700       0.59892600
    54  H          0.20188000       0.44573700       0.40107400
    55  H          0.65332000       0.92905200       0.49087800
    56  H          0.34668000       0.42905200       0.50912200
    57  H          0.78713000       0.88901600       0.51489700
    58  H          0.21287000       0.38901600       0.48510300
    59  P          0.34132000       0.82682800      -0.00961860
    60  P          0.65868000       0.32682800       0.00961860
    61  O          0.27244000       0.83112000       0.07363000
    62  O          0.72756000       0.33112000       0.92637000
    63  N          0.50506000       0.85053000       0.06145000
    64  N          0.49494000       0.35053000       0.93855000
    65  C          0.54751000       0.89275000       0.15889000
    66  C          0.45249000       0.39275000       0.84111000
    67  H          0.46782100       0.91642800       0.15284500
    68  H          0.53217900       0.41642800       0.84715500
    69  H          0.61766600       0.91992500       0.15514500
    70  H          0.38233400       0.41992500       0.84485500
    71  H          0.58618100       0.87076000       0.23509000
    72  H          0.41381900       0.37076000       0.76491000
    73  C          0.60909000       0.84475000       0.01198000
    74  C          0.39091000       0.34475000      -0.01198000
    75  H          0.63006100       0.88487000      -0.00963400
    76  H          0.36993900       0.38487000       0.00963400
    77  H          0.57183600       0.81903100       0.94044600
    78  H          0.42816400       0.31903100       0.05955400
    79  H          0.69343300       0.82653400       0.07233000
    80  H          0.30656700       0.32653400       0.92767000
    81  N          0.25337000       0.86673000       0.86675000
    82  N          0.74663000       0.36673000       0.13325000
    83  C          0.29201100       0.87195000       0.76598000
    84  C          0.70798900       0.37195000       0.23402000
    85  H          0.20851100       0.87454400       0.69041000
    86  H          0.79148900       0.37454400       0.30959000
    87  H          0.34558300       0.83632000       0.76445100
    88  H          0.65441700       0.33632000       0.23554900
    89  H          0.34788100       0.90832200       0.77624400
    90  H          0.65211900       0.40832200       0.22375600
    91  C          0.15521200       0.91185000       0.86338000
    92  C          0.84478800       0.41185000       0.13662000
    93  H          0.09546800       0.92213300       0.77988000
    94  H          0.90453200       0.42213300       0.22012000
    95  H          0.20441300       0.94801600       0.90597600
    96  H          0.79558700       0.44801600       0.09402400
    97  H          0.09916700       0.89591600       0.90187800
    98  H          0.90083300       0.39591600       0.09812200
    99  N          0.35697000       0.75993000       0.93965000
   100  N          0.64303000       0.25993000       0.06035000
   101  C          0.23541000       0.72944000       0.84217000
   102  C          0.76459000       0.22944000       0.15783000
   103  H          0.26441800       0.71072600       0.78473300
   104  H          0.73558200       0.21072600       0.21526700
   105  H          0.16342900       0.75947000       0.80073900
   106  H          0.83657100       0.25947000       0.19926100
   107  H          0.19934300       0.69822100       0.87721000
   108  H          0.80065700       0.19822100       0.12279000
   109  C          0.45521000       0.71454000       0.02357000
   110  C          0.54479000       0.21454000       0.97643000
   111  H          0.50175000       0.69272100       0.98222000
   112  H          0.49825000       0.19272100       0.01778000
   113  H          0.40411300       0.68571700       0.04934500
   114  H          0.59588700       0.18571700       0.95065500
   115  H          0.52404000       0.73544000       0.09362900
   116  H          0.47596000       0.23544000       0.90637100
   117  N          0.71928000       0.39313000       0.70325000
   118  N          0.28072000       0.89313000       0.29675000
   119  H          0.75097100       0.37592800       0.77633100
   120  H          0.24902900       0.87592800       0.22366900
   121  H          0.66425800       0.36982500       0.63723900
   122  H          0.33574200       0.86982500       0.36276100
   123  C          0.81577000       0.43223000       0.69425000
   124  C          0.18423000       0.93223000       0.30575000
   125  C          0.78496000       0.51503000       0.71175000
   126  C          0.21504000       0.01503000       0.28825000
   127  B          0.91898000       0.47443000       0.82196000
   128  B          0.08102000       0.97443000       0.17804000
   129  H          0.91888000       0.46483000       0.91026000
   130  H          0.08112000       0.96483000       0.08974000
   131  B         -0.01091000       0.42334000       0.75056000
   132  B          0.01091000       0.92334000       0.24944000
   133  H          0.04109000       0.38084000       0.79516000
   134  H          0.95891000       0.88084000       0.20484000
   135  B          0.88099000       0.42734000       0.58976000
   136  B          0.11901000       0.92734000       0.41024000
   137  H          0.86019000       0.38814000       0.52806000
   138  H          0.13981000       0.88814000       0.47194000
   139  B          0.75249000       0.48393000       0.57106000
   140  B          0.24751000       0.98393000       0.42894000
   141  H          0.64609000       0.48003000       0.49856000
   142  H          0.35391000       0.98003000       0.50144000
   143  B          0.94168000       0.55074000       0.77926000
   144  B          0.05832000       0.05074000       0.22074000
   145  H          0.96218000       0.58994000       0.84106000
   146  H          0.03782000       0.08994000       0.15894000
   147  B          0.07029000       0.49304000       0.80087000
   148  B          0.92971000       0.99304000       0.19913000
   149  H          0.17429000       0.49514000       0.87757000
   150  H          0.82571000      -0.00486000       0.12243000
   151  B          0.04791000       0.46645000       0.65657000
   152  B          0.95209000       0.96645000       0.34343000
   153  H          0.13581000       0.45205000       0.63777000
   154  H          0.86419000       0.95205000       0.36223000
   155  B          0.89888000       0.50444000       0.54517000
   156  B          0.10112000       0.00444000       0.45483000
   157  H          0.88958000       0.51444000       0.45387000
   158  H          0.11042000       0.01444000       0.54613000
   159  B          0.83448000       0.55724000       0.62006000
   160  B          0.16552000       0.05724000       0.37994000
   161  H          0.78418000       0.60044000       0.57766000
   162  H          0.21582000       0.10044000       0.42234000
   163  B          0.01839000       0.54374000       0.67537000
   164  B         -0.01839000       0.04374000       0.32463000
   165  H          0.08899000       0.57914000       0.66957000
   166  H          0.91101000       0.07914000       0.33043000
   167  C          0.66267000       0.53243000       0.73786000
   168  C          0.33733000       0.03243000       0.26214000
   169  C          0.52548000       0.53713000       0.64676000
   170  C          0.47452000       0.03713000       0.35324000
   171  H          0.50798000       0.52883000       0.56616000
   172  H          0.49202000       0.02883000       0.43384000
   173  C          0.41558000       0.55374000       0.67297000
   174  C          0.58442000       0.05374000       0.32703000
   175  H          0.32518000       0.55644000       0.61017000
   176  H          0.67482000       0.05644000       0.38983000
   177  C          0.43798000       0.56613000       0.79028000
   178  C          0.56202000       0.06613000       0.20972000
   179  H          0.36318000       0.57563000       0.80878000
   180  H          0.63682000       0.07563000       0.19122000
   181  C          0.57079000       0.56434000       0.87887000
   182  C          0.42921000       0.06434000       0.12113000
   183  H          0.58759000       0.57534000       0.95817000
   184  H          0.41241000       0.07534000       0.04183000
   185  C          0.68437000       0.54653000       0.85466000
   186  C          0.31563000       0.04653000       0.14534000
   187  H          0.77447000       0.54423000       0.91806000
   188  H          0.22553000       0.04423000       0.08194000
   189  N          0.28797000       0.74072000       0.25505000
   190  N          0.71203000       0.24072000       0.74495000
   191  H          0.35205200       0.75402900       0.32773100
   192  H          0.64794800       0.25402900       0.67226900
   193  H          0.28946400       0.76672400       0.19814200
   194  H          0.71053600       0.26672400       0.80185800
   195  C          0.17398000       0.70913000       0.24995000
   196  C          0.82602000       0.20913000       0.75005000
   197  C          0.18097000       0.62573000       0.23875000
   198  C          0.81903000       0.12573000       0.76125000
   199  B          0.20059000       0.66123000       0.37096000
   200  B          0.79941000       0.16123000       0.62904000
   201  H          0.30089000       0.66093000       0.45206000
   202  H          0.69911000       0.16093000       0.54794000
   203  B          0.08341000       0.72454000       0.33467000
   204  B          0.91659000       0.22454000       0.66533000
   205  H          0.10471000       0.76444000       0.39487000
   206  H          0.89529000       0.26444000       0.60513000
   207  B          0.00238000       0.72894000       0.17107000
   208  B         -0.00238000       0.22894000       0.82893000
   209  H          0.96922000       0.77244000       0.12217000
   210  H          0.03078000       0.27244000       0.87783000
   211  B          0.07348000       0.66883000       0.11816000
   212  B          0.92652000       0.16883000       0.88184000
   213  H          0.09228000       0.67403000       0.03696000
   214  H          0.90772000       0.17403000       0.96304000
   215  B          0.09869000       0.59294000       0.31647000
   216  B          0.90131000       0.09294000       0.68353000
   217  H          0.12969000       0.54914000       0.36477000
   218  H          0.87031000       0.04914000       0.63523000
   219  B          0.03291000       0.65435000       0.37288000
   220  B          0.96709000       0.15435000       0.62712000
   221  H          0.02051000       0.64975000       0.45728000
   222  H          0.97949000       0.14975000       0.54272000
   223  B          0.91218800       0.69695000       0.24668000
   224  B          0.08781200       0.19695000       0.75332000
   225  H          0.82068800       0.72015000       0.24758000
   226  H          0.17931200       0.22015000       0.75242000
   227  B          0.90702000       0.66114000       0.11367000
   228  B          0.09298000       0.16114000       0.88633000
   229  H          0.81192000       0.66074000       0.02777000
   230  H          0.18808000       0.16074000       0.97223000
   231  B          0.01918000       0.59804000       0.15456000
   232  B         -0.01918000       0.09804000       0.84544000
   233  H         -0.00248000       0.55764000       0.09576000
   234  H          0.00248000       0.05764000       0.90424000
   235  B          0.92348900       0.61535000       0.23918000
   236  B          0.07651100       0.11535000       0.76082000
   237  H          0.83918900       0.58535000       0.23678000
   238  H          0.16081100       0.08535000       0.76322000
   239  C          0.30717000       0.59953000       0.22836000
   240  C          0.69283000       0.09953000       0.77164000
   241  C          0.29168000       0.56523000       0.12597000
   242  C          0.70832000       0.06523000       0.87403000
   243  H          0.20168000       0.55813000       0.06487000
   244  H          0.79832000       0.05813000       0.93513000
   245  C          0.40299000       0.54194000       0.11277000
   246  C          0.59701000       0.04194000       0.88723000
   247  H          0.38859000       0.51924000       0.04327000
   248  H          0.61141000       0.01924000       0.95673000
   249  C          0.53869000       0.55154000       0.20178000
   250  C          0.46131000       0.05154000       0.79822000
   251  H          0.61529000       0.53494000       0.19288000
   252  H          0.38471000       0.03494000       0.80712000
   253  C          0.55839000       0.58534000       0.30147000
   254  C          0.44161000       0.08534000       0.69853000
   255  H          0.64899000       0.59304000       0.36077000
   256  H          0.35101000       0.09304000       0.63923000
   257  C          0.44259000       0.60863000       0.31586000
   258  C          0.55741000       0.10863000       0.68414000
   259  H          0.45739000       0.63083000       0.38606000
   260  H          0.54261000       0.13083000       0.61394000
