data_IBOWAX
_symmetry_space_group_name_H-M    'P1'
_symmetry_Int_Tables_number       1
loop_
_symmetry_equiv_pos_site_id
_symmetry_equiv_pos_as_xyz
1 x,y,z
_cell_length_a                   12.365011
_cell_length_b                   15.89631
_cell_length_c                   12.58179
_cell_angle_alpha                90.0
_cell_angle_beta                 90.0
_cell_angle_gamma                90.0
loop_
_atom_site_label
_atom_site_type_symbol
_atom_site_fract_x
_atom_site_fract_y
_atom_site_fract_z
     1  N          0.85242000       0.46116150       0.10182190
     2  N          0.14758000       0.53883850       0.60182190
     3  N          0.14758000       0.46116150       0.39817810
     4  N          0.85242000       0.53883850       0.89817810
     5  N          0.35242000       0.96116150       0.10182190
     6  N          0.64758000       0.03883850       0.60182190
     7  N          0.64758000       0.96116150       0.39817810
     8  N          0.35242000       0.03883850       0.89817810
     9  H          0.82480000       0.50950000       0.11640000
    10  H          0.17520000       0.49050000       0.61640000
    11  H          0.17520000       0.50950000       0.38360000
    12  H          0.82480000       0.49050000       0.88360000
    13  H          0.32480000       0.00950000       0.11640000
    14  H          0.67520000       0.99050000       0.61640000
    15  H          0.67520000       0.00950000       0.38360000
    16  H          0.32480000       0.99050000       0.88360000
    17  N          0.64493000       0.18702000       0.28523000
    18  N          0.35507000       0.81298000       0.78523000
    19  N          0.35507000       0.18702000       0.21477000
    20  N          0.64493000       0.81298000       0.71477000
    21  N          0.14493000       0.68702000       0.28523000
    22  N          0.85507000       0.31298000       0.78523000
    23  N          0.85507000       0.68702000       0.21477000
    24  N          0.14493000       0.31298000       0.71477000
    25  O          0.67724000       0.11531190       0.26373000
    26  O          0.32276000       0.88468810       0.76373000
    27  O          0.32276000       0.11531190       0.23627000
    28  O          0.67724000       0.88468810       0.73627000
    29  O          0.17724000       0.61531190       0.26373000
    30  O          0.82276000       0.38468810       0.76373000
    31  O          0.82276000       0.61531190       0.23627000
    32  O          0.17724000       0.38468810       0.73627000
    33  O          0.57163000       0.20012000       0.34942000
    34  O          0.42837000       0.79988000       0.84942000
    35  O          0.42837000       0.20012000       0.15058000
    36  O          0.57163000       0.79988000       0.65058000
    37  O          0.07163000       0.70012000       0.34942000
    38  O          0.92837000       0.29988000       0.84942000
    39  O          0.92837000       0.70012000       0.15058000
    40  O          0.07163000       0.29988000       0.65058000
    41  C          0.80292000       0.39256180       0.14402000
    42  C          0.19708000       0.60743820       0.64402000
    43  C          0.19708000       0.39256180       0.35598000
    44  C          0.80292000       0.60743820       0.85598000
    45  C          0.30292000       0.89256180       0.14402000
    46  C          0.69708000       0.10743820       0.64402000
    47  C          0.69708000       0.89256180       0.35598000
    48  C          0.30292000       0.10743820       0.85598000
    49  C          0.83113000       0.31003190       0.11653000
    50  C          0.16887000       0.68996810       0.61653000
    51  C          0.16887000       0.31003190       0.38347000
    52  C          0.83113000       0.68996810       0.88347000
    53  C          0.33113000       0.81003190       0.11653000
    54  C          0.66887000       0.18996810       0.61653000
    55  C          0.66887000       0.81003190       0.38347000
    56  C          0.33113000       0.18996810       0.88347000
    57  H          0.88610000       0.30020000       0.06760000
    58  H          0.11390000       0.69980000       0.56760000
    59  H          0.11390000       0.30020000       0.43240000
    60  H          0.88610000       0.69980000       0.93240000
    61  H          0.38610000       0.80020000       0.06760000
    62  H          0.61390000       0.19980000       0.56760000
    63  H          0.61390000       0.80020000       0.43240000
    64  H          0.38610000       0.19980000       0.93240000
    65  C          0.77673000       0.24312000       0.16263000
    66  C          0.22327000       0.75688000       0.66263000
    67  C          0.22327000       0.24312000       0.33737000
    68  C          0.77673000       0.75688000       0.83737000
    69  C          0.27673000       0.74312000       0.16263000
    70  C          0.72327000       0.25688000       0.66263000
    71  C          0.72327000       0.74312000       0.33737000
    72  C          0.27673000       0.25688000       0.83737000
    73  H          0.79510000       0.18830000       0.14400000
    74  H          0.20490000       0.81170000       0.64400000
    75  H          0.20490000       0.18830000       0.35600000
    76  H          0.79510000       0.81170000       0.85600000
    77  H          0.29510000       0.68830000       0.14400000
    78  H          0.70490000       0.31170000       0.64400000
    79  H          0.70490000       0.68830000       0.35600000
    80  H          0.29510000       0.31170000       0.85600000
    81  C          0.69633000       0.25682000       0.23493000
    82  C          0.30367000       0.74318000       0.73493000
    83  C          0.30367000       0.25682000       0.26507000
    84  C          0.69633000       0.74318000       0.76507000
    85  C          0.19633000       0.75682000       0.23493000
    86  C          0.80367000       0.24318000       0.73493000
    87  C          0.80367000       0.75682000       0.26507000
    88  C          0.19633000       0.24318000       0.76507000
    89  C          0.66733000       0.33772000       0.26303000
    90  C          0.33267000       0.66228000       0.76303000
    91  C          0.33267000       0.33772000       0.23697000
    92  C          0.66733000       0.66228000       0.73697000
    93  C          0.16733000       0.83772000       0.26303000
    94  C          0.83267000       0.16228000       0.76303000
    95  C          0.83267000       0.83772000       0.23697000
    96  C          0.16733000       0.16228000       0.73697000
    97  H          0.61250000       0.34650000       0.31230000
    98  H          0.38750000       0.65350000       0.81230000
    99  H          0.38750000       0.34650000       0.18770000
   100  H          0.61250000       0.65350000       0.68770000
   101  H          0.11250000       0.84650000       0.31230000
   102  H          0.88750000       0.15350000       0.81230000
   103  H          0.88750000       0.84650000       0.18770000
   104  H          0.11250000       0.15350000       0.68770000
   105  C          0.71933000       0.40452000       0.21832000
   106  C          0.28067000       0.59548000       0.71832000
   107  C          0.28067000       0.40452000       0.28168000
   108  C          0.71933000       0.59548000       0.78168000
   109  C          0.21933000       0.90452000       0.21832000
   110  C          0.78067000       0.09548000       0.71832000
   111  C          0.78067000       0.90452000       0.28168000
   112  C          0.21933000       0.09548000       0.78168000
   113  H          0.69910000       0.45890000       0.23720000
   114  H          0.30090000       0.54110000       0.73720000
   115  H          0.30090000       0.45890000       0.26280000
   116  H          0.69910000       0.54110000       0.76280000
   117  H          0.19910000       0.95890000       0.23720000
   118  H          0.80090000       0.04110000       0.73720000
   119  H          0.80090000       0.95890000       0.26280000
   120  H          0.19910000       0.04110000       0.76280000
   121  C          0.94812000       0.46032000       0.03412000
   122  C          0.05188000       0.53968000       0.53412000
   123  C          0.05188000       0.46032000       0.46588000
   124  C          0.94812000       0.53968000       0.96588000
   125  C          0.44812000       0.96032000       0.03412000
   126  C          0.55188000       0.03968000       0.53412000
   127  C          0.55188000       0.96032000       0.46588000
   128  C          0.44812000       0.03968000       0.96588000
   129  H          0.94430000       0.41120000       0.98720000
   130  H          0.05570000       0.58880000       0.48720000
   131  H          0.05570000       0.41120000       0.51280000
   132  H          0.94430000       0.58880000       0.01280000
   133  H          0.44430000       0.91120000       0.98720000
   134  H          0.55570000       0.08880000       0.48720000
   135  H          0.55570000       0.91120000       0.51280000
   136  H          0.44430000       0.08880000       0.01280000
   137  C          0.05103000       0.45413000       0.10093000
   138  C          0.94897000       0.54587000       0.60093000
   139  C          0.94897000       0.45413000       0.39907000
   140  C          0.05103000       0.54587000       0.89907000
   141  C          0.55103000       0.95413000       0.10093000
   142  C          0.44897000       0.04587000       0.60093000
   143  C          0.44897000       0.95413000       0.39907000
   144  C          0.55103000       0.04587000       0.89907000
   145  H          0.05190000       0.49910000       0.15290000
   146  H          0.94810000       0.50090000       0.65290000
   147  H          0.94810000       0.49910000       0.34710000
   148  H          0.05190000       0.50090000       0.84710000
   149  H          0.55190000      -0.00090000       0.15290000
   150  H          0.44810000       0.00090000       0.65290000
   151  H          0.44810000      -0.00090000       0.34710000
   152  H          0.55190000       0.00090000       0.84710000
   153  H          0.05140000       0.40100000       0.13890000
   154  H          0.94860000       0.59900000       0.63890000
   155  H          0.94860000       0.40100000       0.36110000
   156  H          0.05140000       0.59900000       0.86110000
   157  H          0.55140000       0.90100000       0.13890000
   158  H          0.44860000       0.09900000       0.63890000
   159  H          0.44860000       0.90100000       0.36110000
   160  H          0.55140000       0.09900000       0.86110000
   161  C          0.15093000       0.46004000       0.03163000
   162  C          0.84907000       0.53996000       0.53163000
   163  C          0.84907000       0.46004000       0.46837000
   164  C          0.15093000       0.53996000       0.96837000
   165  C          0.65093000       0.96004000       0.03163000
   166  C          0.34907000       0.03996000       0.53163000
   167  C          0.34907000       0.96004000       0.46837000
   168  C          0.65093000       0.03996000       0.96837000
   169  H          0.21500000       0.45800000       0.07600000
   170  H          0.78500000       0.54200000       0.57600000
   171  H          0.78500000       0.45800000       0.42400000
   172  H          0.21500000       0.54200000       0.92400000
   173  H          0.71500000       0.95800000       0.07600000
   174  H          0.28500000       0.04200000       0.57600000
   175  H          0.28500000       0.95800000       0.42400000
   176  H          0.71500000       0.04200000       0.92400000
   177  H          0.15310000       0.41220000       0.98360000
   178  H          0.84690000       0.58780000       0.48360000
   179  H          0.84690000       0.41220000       0.51640000
   180  H          0.15310000       0.58780000       0.01640000
   181  H          0.65310000       0.91220000       0.98360000
   182  H          0.34690000       0.08780000       0.48360000
   183  H          0.34690000       0.91220000       0.51640000
   184  H          0.65310000       0.08780000       0.01640000
   185  C          0.92695000       0.00000000       0.50000000
   186  C          0.07305000       0.00000000      -0.00000000
   187  C          0.42695000       0.50000000       0.50000000
   188  C          0.57305000       0.50000000      -0.00000000
   189  H          0.85170000       0.00000000       0.50000000
   190  H          0.14830000       0.00000000      -0.00000000
   191  H          0.35170000       0.50000000       0.50000000
   192  H          0.64830000       0.50000000      -0.00000000
   193  C          0.97804000       0.07074000       0.46565000
   194  C          0.02196000       0.92926000       0.96565000
   195  C          0.02196000       0.07074000       0.03435000
   196  C          0.97804000       0.92926000       0.53435000
   197  C          0.47804000       0.57074000       0.46565000
   198  C          0.52196000       0.42926000       0.96565000
   199  C          0.52196000       0.57074000       0.03435000
   200  C          0.47804000       0.42926000       0.53435000
   201  O          0.08063000       0.07274000       0.46496000
   202  O          0.91937000       0.92726000       0.96496000
   203  O          0.91937000       0.07274000       0.03504000
   204  O          0.08063000       0.92726000       0.53504000
   205  O          0.58063000       0.57274000       0.46496000
   206  O          0.41937000       0.42726000       0.96496000
   207  O          0.41937000       0.57274000       0.03504000
   208  O          0.58063000       0.42726000       0.53504000
   209  C          0.92256000       0.14735000       0.42736000
   210  C          0.07744000       0.85265000       0.92736000
   211  C          0.07744000       0.14735000       0.07264000
   212  C          0.92256000       0.85265000       0.57264000
   213  C          0.42256000       0.64735000       0.42736000
   214  C          0.57744000       0.35265000       0.92736000
   215  C          0.57744000       0.64735000       0.07264000
   216  C          0.42256000       0.35265000       0.57264000
   217  H          0.97110000       0.19430000       0.43110000
   218  H          0.02890000       0.80570000       0.93110000
   219  H          0.02890000       0.19430000       0.06890000
   220  H          0.97110000       0.80570000       0.56890000
   221  H          0.47110000       0.69430000       0.43110000
   222  H          0.52890000       0.30570000       0.93110000
   223  H          0.52890000       0.69430000       0.06890000
   224  H          0.47110000       0.30570000       0.56890000
   225  H          0.86030000       0.15810000       0.47090000
   226  H          0.13970000       0.84190000       0.97090000
   227  H          0.13970000       0.15810000       0.02910000
   228  H          0.86030000       0.84190000       0.52910000
   229  H          0.36030000       0.65810000       0.47090000
   230  H          0.63970000       0.34190000       0.97090000
   231  H          0.63970000       0.65810000       0.02910000
   232  H          0.36030000       0.34190000       0.52910000
   233  H          0.89990000       0.13920000       0.35500000
   234  H          0.10010000       0.86080000       0.85500000
   235  H          0.10010000       0.13920000       0.14500000
   236  H          0.89990000       0.86080000       0.64500000
   237  H          0.39990000       0.63920000       0.35500000
   238  H          0.60010000       0.36080000       0.85500000
   239  H          0.60010000       0.63920000       0.14500000
   240  H          0.39990000       0.36080000       0.64500000
