data_IBOZEH
_symmetry_space_group_name_H-M    'P1'
_symmetry_Int_Tables_number       1
loop_
_symmetry_equiv_pos_site_id
_symmetry_equiv_pos_as_xyz
1 x,y,z
_cell_length_a                   8.657311
_cell_length_b                   7.15011
_cell_length_c                   18.7543
_cell_angle_alpha                90.0
_cell_angle_beta                 96.9309
_cell_angle_gamma                90.0
loop_
_atom_site_label
_atom_site_type_symbol
_atom_site_fract_x
_atom_site_fract_y
_atom_site_fract_z
     1  F          0.20660900       0.41715120       0.02373500
     2  F          0.79339100       0.91715120       0.47626500
     3  F          0.79339100       0.58284880       0.97626500
     4  F          0.20660900       0.08284880       0.52373500
     5  F          0.40519900       0.52677130       0.13149500
     6  F          0.59480100       0.02677130       0.36850500
     7  F          0.59480100       0.47322870       0.86850500
     8  F          0.40519900       0.97322870       0.63149500
     9  N          0.00074160       0.28892000       0.88896300
    10  N         -0.00074160       0.78892000       0.61103700
    11  N         -0.00074160       0.71108000       0.11103700
    12  N          0.00074160       0.21108000       0.38896300
    13  N          0.34275170       0.33402000       0.75373200
    14  N          0.65724830       0.83402000       0.74626800
    15  N          0.65724830       0.66598000       0.24626800
    16  N          0.34275170       0.16598000       0.25373200
    17  C          0.12717180       0.33042000       0.88960200
    18  C          0.87282820       0.83042000       0.61039800
    19  C          0.87282820       0.66958000       0.11039800
    20  C          0.12717180       0.16958000       0.38960200
    21  C          0.35184150       0.45753190       0.01176800
    22  C          0.64815850       0.95753190       0.48823200
    23  C          0.64815850       0.54246810       0.98823200
    24  C          0.35184150       0.04246810       0.51176800
    25  C          0.45272170       0.51335200       0.06668800
    26  C          0.54727830       0.01335200       0.43331200
    27  C          0.54727830       0.48664800       0.93331200
    28  C          0.45272170      -0.01335200       0.56668800
    29  C          0.38937150       0.43868180       0.94000200
    30  C          0.61062850       0.93868180       0.55999800
    31  C          0.61062850       0.56131820       0.05999800
    32  C          0.38937150       0.06131820       0.44000200
    33  C          0.32323170       0.35752000       0.81181900
    34  C          0.67676830       0.85752000       0.68818100
    35  C          0.67676830       0.64248000       0.18818100
    36  C          0.32323170       0.14248000       0.31181900
    37  C          0.28576160       0.37924190       0.88366200
    38  C          0.71423840       0.87924190       0.61633800
    39  C          0.71423840       0.62075810       0.11633800
    40  C          0.28576160       0.12075810       0.38366200
    41  C          0.76532150       0.11138190       0.05552800
    42  C          0.23467850       0.61138190       0.44447200
    43  C          0.23467850       0.88861810       0.94447200
    44  C          0.76532150       0.38861810       0.55552800
    45  C          0.54783150       0.00532190       0.97124300
    46  C          0.45216850       0.50532190       0.52875700
    47  C          0.45216850      -0.00532190       0.02875700
    48  C          0.54783150       0.49467810       0.47124300
    49  C          0.70242160       0.06412000       0.98695100
    50  C          0.29757840       0.56412000       0.51304900
    51  C          0.29757840       0.93588000       0.01304900
    52  C          0.70242160       0.43588000       0.48695100
    53  C          0.48233170       0.95788000       0.90176100
    54  C          0.51766830       0.45788000       0.59823900
    55  C          0.51766830       0.04212000       0.09823900
    56  C          0.48233170       0.54212000       0.40176100
    57  C          0.67051160       0.09965190       0.11293800
    58  C          0.32948840       0.59965190       0.38706200
    59  C          0.32948840       0.90034810       0.88706200
    60  C          0.67051160       0.40034810       0.61293800
    61  C          0.92206180       0.17372000       0.07169110
    62  C          0.07793820       0.67372000       0.42830890
    63  C          0.07793820       0.82628000       0.92830890
    64  C          0.92206180       0.32628000       0.57169110
    65  C          0.73962000       0.15013000       0.18356100
    66  C          0.26038000       0.65013000       0.31643900
    67  C          0.26038000       0.84987000       0.81643900
    68  C          0.73962000       0.34987000       0.68356100
    69  C          0.98092000       0.21943000       0.13859120
    70  C          0.01908000       0.71943000       0.36140880
    71  C          0.01908000       0.78057000       0.86140880
    72  C          0.98092000       0.28057000       0.63859120
    73  C          0.88942000       0.20763000       0.19512120
    74  C          0.11058000       0.70763000       0.30487880
    75  C          0.11058000       0.79237000       0.80487880
    76  C          0.88942000       0.29237000       0.69512120
    77  H          0.54631400       0.96668300       0.86443000
    78  H          0.45368600       0.46668300       0.63557000
    79  H          0.45368600       0.03331700       0.13557000
    80  H          0.54631400       0.53331700       0.36443000
    81  H          0.76691500       0.07371700       0.94892000
    82  H          0.23308500       0.57371700       0.55108000
    83  H          0.23308500       0.92628300       0.05108000
    84  H          0.76691500       0.42628300       0.44892000
    85  H          0.08531800       0.26220000       0.14939000
    86  H          0.91468200       0.76220000       0.35061000
    87  H          0.91468200       0.73780000       0.85061000
    88  H          0.08531800       0.23780000       0.64939000
    89  H          0.67571600       0.14520000       0.21938000
    90  H          0.32428400       0.64520000       0.28062000
    91  H          0.32428400       0.85480000       0.78062000
    92  H          0.67571600       0.35480000       0.71938000
    93  H         -0.01708400       0.18120000       0.03129000
    94  H          0.01708400       0.68120000       0.46871000
    95  H          0.01708400       0.81880000       0.96871000
    96  H         -0.01708400       0.31880000       0.53129000
    97  H          0.92621800       0.24120000       0.24401000
    98  H          0.07378200       0.74120000       0.25599000
    99  H          0.07378200       0.75880000       0.75599000
   100  H          0.92621800       0.25880000       0.74401000
