data_IBOZOS
_symmetry_space_group_name_H-M    'P1'
_symmetry_Int_Tables_number       1
loop_
_symmetry_equiv_pos_site_id
_symmetry_equiv_pos_as_xyz
1 x,y,z
_cell_length_a                   9.90991
_cell_length_b                   10.45151
_cell_length_c                   12.512313
_cell_angle_alpha                90.0
_cell_angle_beta                 106.8278
_cell_angle_gamma                90.0
loop_
_atom_site_label
_atom_site_type_symbol
_atom_site_fract_x
_atom_site_fract_y
_atom_site_fract_z
     1  I          0.22940000      -0.00990000       0.49820000
     2  I          0.27060000       0.49010000       0.00180000
     3  I          0.77060000       0.00990000       0.50180000
     4  I          0.72940000       0.50990000      -0.00180000
     5  O          0.31962000       0.88159000       0.76531000
     6  O          0.18038000       0.38159000       0.73469000
     7  O          0.68038000       0.11841000       0.23469000
     8  O          0.81962000       0.61841000       0.26531000
     9  O          0.28032000       0.68289000       0.43351000
    10  O          0.21968000       0.18289000       0.06649000
    11  O          0.71968000       0.31711000       0.56649000
    12  O          0.78032000       0.81711000       0.93351000
    13  N          0.29402000       0.80989000       0.58671000
    14  N          0.20598000       0.30989000       0.91329000
    15  N          0.70598000       0.19011000       0.41329000
    16  N          0.79402000       0.69011000       0.08671000
    17  C          0.33112000       0.79768000       0.70141000
    18  C          0.16888000       0.29768000       0.79859000
    19  C          0.66888000       0.20232000       0.29859000
    20  C          0.83112000       0.70232000       0.20141000
    21  C          0.36812000       0.59548000       0.62162000
    22  C          0.13188000       0.09548000       0.87838000
    23  C          0.63188000       0.40452000       0.37838000
    24  C          0.86812000       0.90452000       0.12162000
    25  C          0.38742000       0.66348000       0.73332000
    26  C          0.11258000       0.16348000       0.76668000
    27  C          0.61258000       0.33652000       0.26668000
    28  C          0.88742000       0.83652000       0.23332000
    29  C          0.30982000       0.69718000       0.53422000
    30  C          0.19018000       0.19718000       0.96578000
    31  C          0.69018000       0.30282000       0.46578000
    32  C          0.80982000       0.80282000       0.03422000
    33  H          0.45930000       0.56250000       0.61560000
    34  H          0.04070000       0.06250000       0.88440000
    35  H          0.54070000       0.43750000       0.38440000
    36  H          0.95930000       0.93750000       0.11560000
    37  H          0.30130000       0.52320000       0.61320000
    38  H          0.19870000       0.02320000       0.88680000
    39  H          0.69870000       0.47680000       0.38680000
    40  H          0.80130000       0.97680000       0.11320000
    41  H          0.33340000       0.61980000       0.77800000
    42  H          0.16660000       0.11980000       0.72200000
    43  H          0.66660000       0.38020000       0.22200000
    44  H          0.83340000       0.88020000       0.27800000
    45  H          0.48820000       0.66590000       0.77710000
    46  H          0.01180000       0.16590000       0.72290000
    47  H          0.51180000       0.33410000       0.22290000
    48  H         -0.01180000       0.83410000       0.27710000
    49  N          0.15961000       0.18351000       0.39871000
    50  N          0.34039000       0.68351000       0.10129000
    51  N          0.84039000       0.81649000       0.60129000
    52  N          0.65961000       0.31649000       0.89871000
    53  C          0.08042000       0.39012000       0.28671000
    54  C          0.41958000       0.89012000       0.21329000
    55  C          0.91958000       0.60988000       0.71329000
    56  C          0.58042000       0.10988000       0.78671000
    57  C          0.04432000       0.39592000       0.39732000
    58  C          0.45568000       0.89592000       0.10268000
    59  C          0.95568000       0.60408000       0.60268000
    60  C          0.54432000       0.10408000       0.89732000
    61  C          0.23962000       0.37232000       0.31162000
    62  C          0.26038000       0.87232000       0.18838000
    63  C          0.76038000       0.62768000       0.68838000
    64  C          0.73962000       0.12768000       0.81162000
    65  C          0.09792000       0.27302000       0.46422000
    66  C          0.40208000       0.77302000       0.03578000
    67  C          0.90208000       0.72698000       0.53578000
    68  C          0.59792000       0.22698000       0.96422000
    69  C          0.00552000       0.27432000       0.22032000
    70  C          0.49448000       0.77432000       0.27968000
    71  C         -0.00552000       0.72568000       0.77968000
    72  C          0.50552000       0.22568000       0.72032000
    73  C          0.28282000       0.24472000       0.37412000
    74  C          0.21718000       0.74472000       0.12588000
    75  C          0.71718000       0.75528000       0.62588000
    76  C          0.78282000       0.25528000       0.87412000
    77  C          0.05152000       0.15322000       0.29161000
    78  C          0.44848000       0.65322000       0.20839000
    79  C          0.94848000       0.84678000       0.70839000
    80  C          0.55152000       0.34678000       0.79161000
    81  H          0.04980000       0.47060000       0.24320000
    82  H          0.45020000       0.97060000       0.25680000
    83  H          0.95020000       0.52940000       0.75680000
    84  H          0.54980000       0.02940000       0.74320000
    85  H          0.94100000       0.40340000       0.38300000
    86  H          0.55900000       0.90340000       0.11700000
    87  H          0.05900000       0.59660000       0.61700000
    88  H          0.44100000       0.09660000       0.88300000
    89  H          0.08930000       0.47170000       0.44060000
    90  H          0.41070000       0.97170000       0.05940000
    91  H          0.91070000       0.52830000       0.55940000
    92  H          0.58930000       0.02830000       0.94060000
    93  H          0.28970000       0.44420000       0.35800000
    94  H          0.21030000       0.94420000       0.14200000
    95  H          0.71030000       0.55580000       0.64200000
    96  H          0.78970000       0.05580000       0.85800000
    97  H          0.26570000       0.37150000       0.24100000
    98  H          0.23430000       0.87150000       0.25900000
    99  H          0.73430000       0.62850000       0.75900000
   100  H          0.76570000       0.12850000       0.74100000
   101  H          0.17010000       0.29550000       0.53460000
   102  H          0.32990000       0.79550000       0.96540000
   103  H          0.82990000       0.70450000       0.46540000
   104  H          0.67010000       0.20450000       0.03460000
   105  H          0.01870000       0.23050000       0.48340000
   106  H          0.48130000       0.73050000       0.01660000
   107  H          0.98130000       0.76950000       0.51660000
   108  H          0.51870000       0.26950000       0.98340000
   109  H          0.03060000       0.26660000       0.14960000
   110  H          0.46940000       0.76660000       0.35040000
   111  H          0.96940000       0.73340000       0.85040000
   112  H          0.53060000       0.23340000       0.64960000
   113  H          0.90200000       0.28520000       0.20200000
   114  H          0.59800000       0.78520000       0.29800000
   115  H          0.09800000       0.71480000       0.79800000
   116  H          0.40200000       0.21480000       0.70200000
   117  H          0.32140000       0.18630000       0.32800000
   118  H          0.17860000       0.68630000       0.17200000
   119  H          0.67860000       0.81370000       0.67200000
   120  H          0.82140000       0.31370000       0.82800000
   121  H          0.35750000       0.26070000       0.44490000
   122  H          0.14250000       0.76070000       0.05510000
   123  H          0.64250000       0.73930000       0.55510000
   124  H          0.85750000       0.23930000       0.94490000
   125  H          0.96840000       0.11400000       0.30740000
   126  H          0.53160000       0.61400000       0.19260000
   127  H          0.03160000       0.88600000       0.69260000
   128  H          0.46840000       0.38600000       0.80740000
   129  H          0.09050000       0.09040000       0.24930000
   130  H          0.40950000       0.59040000       0.25070000
   131  H          0.90950000       0.90960000       0.75070000
   132  H          0.59050000       0.40960000       0.74930000
