data_IBOZUY
_symmetry_space_group_name_H-M    'P1'
_symmetry_Int_Tables_number       1
loop_
_symmetry_equiv_pos_site_id
_symmetry_equiv_pos_as_xyz
1 x,y,z
_cell_length_a                   10.13113
_cell_length_b                   7.2099
_cell_length_c                   10.19412
_cell_angle_alpha                90.0
_cell_angle_beta                 109.14316
_cell_angle_gamma                90.0
loop_
_atom_site_label
_atom_site_type_symbol
_atom_site_fract_x
_atom_site_fract_y
_atom_site_fract_z
     1  I          0.09307400       0.87496130       0.68843400
     2  I          0.90692600       0.37496130       0.31156600
     3  O          0.10186000       0.62979000       0.97247000
     4  O          0.89814000       0.12979000       0.02753000
     5  O          0.75734000       0.96347000       0.66096000
     6  O          0.24266000       0.46347000       0.33904000
     7  N          0.95183000       0.80618000       0.80177000
     8  N          0.04817000       0.30618000       0.19823000
     9  C         -0.01368000       0.69841100       0.91559000
    10  C          0.01368000       0.19841100       0.08441000
    11  C          0.74392000       0.77521100       0.85428000
    12  C          0.25608000       0.27521100       0.14572000
    13  C          0.86041000       0.67751300       0.96571000
    14  C          0.13959000       0.17751300       0.03429000
    15  C          0.81273000       0.86620000       0.75997000
    16  C          0.18727000       0.36620000       0.24003000
    17  H          0.67234000       0.68499000       0.80187000
    18  H          0.32766000       0.18499000       0.19813000
    19  H          0.69878000       0.86926000       0.89608000
    20  H          0.30122000       0.36926000       0.10392000
    21  H          0.83771000       0.54509000       0.97271000
    22  H          0.16229000       0.04509000       0.02729000
    23  H          0.87816000       0.73735000       0.05722000
    24  H          0.12184000       0.23735000       0.94278000
    25  N          0.24467000       0.92888000       0.55007000
    26  N          0.75533000       0.42888000       0.44993000
    27  C          0.16317000       0.87120000       0.40817000
    28  C          0.83683000       0.37120000       0.59183000
    29  C          0.28698000       0.12741100       0.54508000
    30  C          0.71302000       0.62741100       0.45492000
    31  C          0.36328000       0.22081000       0.67878000
    32  C          0.63672000       0.72081000       0.32122000
    33  C          0.29098000       0.33681100       0.74239000
    34  C          0.70902000       0.83681100       0.25761000
    35  C          0.57639000       0.29821100       0.86221000
    36  C          0.42361000       0.79821100       0.13779000
    37  C          0.50449000       0.41551100       0.92249000
    38  C          0.49551000       0.91551100       0.07751000
    39  C          0.50708000       0.20521100       0.74019000
    40  C          0.49292000       0.70521100       0.25981000
    41  C          0.35969000       0.43471000       0.86199000
    42  C          0.64031000       0.93471000       0.13801000
    43  C          0.36899000       0.80701100       0.60461000
    44  C          0.63101000       0.30701100       0.39539000
    45  H          0.22436000       0.86569000       0.35105000
    46  H          0.77564000       0.36569000       0.64895000
    47  H          0.08774000       0.95993000       0.36778000
    48  H          0.91226000       0.45993000       0.63222000
    49  H          0.12302000       0.74758000       0.41085000
    50  H          0.87698000       0.24758000       0.58915000
    51  H          0.34627000       0.13410000       0.48490000
    52  H          0.65373000       0.63410000       0.51510000
    53  H          0.20137000       0.20015000       0.49881000
    54  H          0.79863000       0.70015000       0.50119000
    55  H          0.19235000       0.34838000       0.70226000
    56  H          0.80765000       0.84838000       0.29774000
    57  H          0.67402000       0.28120000       0.90508000
    58  H          0.32598000       0.78120000       0.09492000
    59  H          0.55302000       0.48265000       0.00417000
    60  H          0.44698000      -0.01735000      -0.00417000
    61  H          0.55853000       0.12978000       0.69783000
    62  H          0.44147000       0.62978000       0.30217000
    63  H          0.30898000       0.51412000       0.90257000
    64  H          0.69102000       0.01412000       0.09743000
    65  H          0.33848000       0.67788000       0.60432000
    66  H          0.66152000       0.17788000       0.39568000
    67  H          0.42222000       0.84416000       0.69970000
    68  H          0.57778000       0.34416000       0.30030000
    69  H          0.42794000       0.81850000       0.54572000
    70  H          0.57206000       0.31850000       0.45428000
