data_IBUBEQ
_symmetry_space_group_name_H-M    'P1'
_symmetry_Int_Tables_number       1
loop_
_symmetry_equiv_pos_site_id
_symmetry_equiv_pos_as_xyz
1 x,y,z
_cell_length_a                   13.09621
_cell_length_b                   19.824616
_cell_length_c                   11.85089
_cell_angle_alpha                90.0
_cell_angle_beta                 103.6997
_cell_angle_gamma                90.0
loop_
_atom_site_label
_atom_site_type_symbol
_atom_site_fract_x
_atom_site_fract_y
_atom_site_fract_z
     1  I          0.94634800       0.38951200       0.40888200
     2  I          0.05365200       0.88951200       0.09111800
     3  I          0.05365200       0.61048800       0.59111800
     4  I          0.94634800       0.11048800       0.90888200
     5  O          0.91098870       0.48205900       0.16067150
     6  O          0.08901130       0.98205900       0.33932850
     7  O          0.08901130       0.51794100       0.83932850
     8  O          0.91098870       0.01794100       0.66067150
     9  O          0.68490830       0.37331140       0.33452000
    10  O          0.31509170       0.87331140       0.16548000
    11  O          0.31509170       0.62668860       0.66548000
    12  O          0.68490830       0.12668860       0.83452000
    13  N          0.81696850       0.42128100       0.26624170
    14  N          0.18303150       0.92128100       0.23375830
    15  N          0.18303150       0.57871900       0.73375830
    16  N          0.81696850       0.07871900       0.76624170
    17  C          0.82848810       0.45716120       0.16992000
    18  C          0.17151190       0.95716120       0.33008000
    19  C          0.17151190       0.54283880       0.83008000
    20  C          0.82848810       0.04283880       0.66992000
    21  C          0.72368000       0.45986130       0.08212000
    22  C          0.27632000       0.95986130       0.41788000
    23  C          0.27632000       0.54013870       0.91788000
    24  C          0.72368000       0.04013870       0.58212000
    25  C          0.64898000       0.42070150       0.13833000
    26  C          0.35102000       0.92070150       0.36167000
    27  C          0.35102000       0.57929850       0.86167000
    28  C          0.64898000       0.07929850       0.63833000
    29  C          0.71478000       0.40174140       0.25723000
    30  C          0.28522000       0.90174140       0.24277000
    31  C          0.28522000       0.59825860       0.74277000
    32  C          0.71478000       0.09825860       0.75723000
    33  H          0.72867000       0.43860000       0.00801000
    34  H          0.27133000       0.93860000       0.49199000
    35  H          0.27133000       0.56140000      -0.00801000
    36  H          0.72867000       0.06140000       0.50801000
    37  H          0.69984000       0.50707000       0.06674000
    38  H          0.30016000       0.00707000       0.43326000
    39  H          0.30016000       0.49293000       0.93326000
    40  H          0.69984000       0.99293000       0.56674000
    41  H          0.58853000       0.44905000       0.14509000
    42  H          0.41147000       0.94905000       0.35491000
    43  H          0.41147000       0.55095000       0.85491000
    44  H          0.58853000       0.05095000       0.64509000
    45  H          0.62247000       0.37991000       0.09255000
    46  H          0.37753000       0.87991000       0.40745000
    47  H          0.37753000       0.62009000       0.90745000
    48  H          0.62247000       0.12009000       0.59255000
    49  N          0.08821160       0.35392100       0.56017170
    50  N          0.91178840       0.85392100       0.93982830
    51  N          0.91178840       0.64607900       0.43982830
    52  N          0.08821160       0.14607900       0.06017170
    53  C          0.16292000       0.31461130       0.51142000
    54  C          0.83708000       0.81461130      -0.01142000
    55  C          0.83708000       0.68538870       0.48858000
    56  C          0.16292000       0.18538870       0.01142000
    57  C          0.13792000       0.41321130       0.62722000
    58  C          0.86208000       0.91321130       0.87278000
    59  C          0.86208000       0.58678870       0.37278000
    60  C          0.13792000       0.08678870       0.12722000
    61  C          0.23042000       0.39606120       0.72522000
    62  C          0.76958000       0.89606120       0.77478000
    63  C          0.76958000       0.60393880       0.27478000
    64  C          0.23042000       0.10393880       0.22522000
    65  C          0.33272000       0.41262130       0.72062000
    66  C          0.66728000       0.91262130       0.77938000
    67  C          0.66728000       0.58737870       0.27938000
    68  C          0.33272000       0.08737870       0.22062000
    69  C          0.41702000       0.39625140       0.81263000
    70  C          0.58298000       0.89625140       0.68737000
    71  C          0.58298000       0.60374860       0.18737000
    72  C          0.41702000       0.10374860       0.31263000
    73  C          0.39942000       0.36373140       0.90893000
    74  C          0.60058000       0.86373140       0.59107000
    75  C          0.60058000       0.63626860       0.09107000
    76  C          0.39942000       0.13626860       0.40893000
    77  C          0.29842000       0.34596130       0.91332000
    78  C          0.70158000       0.84596130       0.58668000
    79  C          0.70158000       0.65403870       0.08668000
    80  C          0.29842000       0.15403870       0.41332000
    81  C          0.21422000       0.36200130       0.82242000
    82  C          0.78578000       0.86200130       0.67758000
    83  C          0.78578000       0.63799870       0.17758000
    84  C          0.21422000       0.13799870       0.32242000
    85  H          0.45666000       0.35352000       0.97242000
    86  H          0.54334000       0.85352000       0.52758000
    87  H          0.54334000       0.64648000       0.02758000
    88  H          0.45666000       0.14648000       0.47242000
    89  H          0.14500000       0.34976000       0.82632000
    90  H          0.85500000       0.84976000       0.67368000
    91  H          0.85500000       0.65024000       0.17368000
    92  H          0.14500000       0.15024000       0.32632000
    93  H          0.28669000       0.32257000       0.97902000
    94  H          0.71331000       0.82257000       0.52098000
    95  H          0.71331000       0.67743000       0.02098000
    96  H          0.28669000       0.17743000       0.47902000
    97  H          0.48664000       0.40754000       0.80894000
    98  H          0.51336000       0.90754000       0.69106000
    99  H          0.51336000       0.59246000       0.19106000
   100  H          0.48664000       0.09246000       0.30894000
   101  H          0.08449000       0.43677000       0.65953000
   102  H          0.91551000       0.93677000       0.84047000
   103  H          0.91551000       0.56323000       0.34047000
   104  H          0.08449000       0.06323000       0.15953000
   105  H          0.16127000       0.44480000       0.57373000
   106  H          0.83873000       0.94480000       0.92627000
   107  H          0.83873000       0.55520000       0.42627000
   108  H          0.16127000       0.05520000       0.07373000
   109  H          0.34503000       0.43517000       0.65432000
   110  H          0.65497000       0.93517000       0.84568000
   111  H          0.65497000       0.56483000       0.34568000
   112  H          0.34503000       0.06483000       0.15432000
   113  H          0.12583000       0.27716000       0.46523000
   114  H          0.87417000       0.77716000       0.03477000
   115  H          0.87417000       0.72284000       0.53477000
   116  H          0.12583000       0.22284000       0.96523000
   117  H          0.21848000       0.29672000       0.57475000
   118  H          0.78152000       0.79672000       0.92525000
   119  H          0.78152000       0.70328000       0.42525000
   120  H          0.21848000       0.20328000       0.07475000
   121  H          0.19407000       0.34377000       0.46180000
   122  H          0.80593000       0.84377000       0.03820000
   123  H          0.80593000       0.65623000       0.53820000
   124  H          0.19407000       0.15623000       0.96180000
   125  I          0.95315800       0.14835200       0.47285200
   126  I          0.04684200       0.64835200       0.02714800
   127  I          0.04684200       0.85164800       0.52714800
   128  I          0.95315800       0.35164800       0.97285200
   129  O          0.96194860       0.20145100       0.20947150
   130  O          0.03805140       0.70145100       0.29052850
   131  O          0.03805140       0.79854900       0.79052850
   132  O          0.96194860       0.29854900       0.70947150
   133  O          0.68950860       0.17425100       0.38343160
   134  O          0.31049140       0.67425100       0.11656840
   135  O          0.31049140       0.82574900       0.61656840
   136  O          0.68950860       0.32574900       0.88343160
   137  N          0.84197850       0.18479100       0.31976170
   138  N          0.15802150       0.68479100       0.18023830
   139  N          0.15802150       0.81520900       0.68023830
   140  N          0.84197850       0.31520900       0.81976170
   141  C          0.73435810       0.18830120       0.30792000
   142  C          0.26564190       0.68830120       0.19208000
   143  C          0.26564190       0.81169880       0.69208000
   144  C          0.73435810       0.31169880       0.80792000
   145  C          0.68358000       0.21323140       0.18652000
   146  C          0.31642000       0.71323140       0.31348000
   147  C          0.31642000       0.78676860       0.81348000
   148  C          0.68358000       0.28676860       0.68652000
   149  C          0.77518000       0.22325140       0.12892000
   150  C          0.22482000       0.72325140       0.37108000
   151  C          0.22482000       0.77674860       0.87108000
   152  C          0.77518000       0.27674860       0.62892000
   153  C          0.87118810       0.20247120       0.22012000
   154  C          0.12881190       0.70247120       0.27988000
   155  C          0.12881190       0.79752880       0.77988000
   156  C          0.87118810       0.29752880       0.72012000
   157  H          0.76663000       0.19465000       0.05874000
   158  H          0.23337000       0.69465000       0.44126000
   159  H          0.23337000       0.80535000       0.94126000
   160  H          0.76663000       0.30535000       0.55874000
   161  H          0.78040000       0.27100000       0.10641000
   162  H          0.21960000       0.77100000       0.39359000
   163  H          0.21960000       0.72900000       0.89359000
   164  H          0.78040000       0.22900000       0.60641000
   165  H          0.64598000       0.25623000       0.18954000
   166  H          0.35402000       0.75623000       0.31046000
   167  H          0.35402000       0.74377000       0.81046000
   168  H          0.64598000       0.24377000       0.68954000
   169  H          0.63337000       0.17951000       0.14357000
   170  H          0.36663000       0.67951000       0.35643000
   171  H          0.36663000       0.82049000       0.85643000
   172  H          0.63337000       0.32049000       0.64357000
   173  N          0.07898150       0.10847100       0.64138170
   174  N          0.92101850       0.60847100       0.85861830
   175  N          0.92101850       0.89152900       0.35861830
   176  N          0.07898150       0.39152900       0.14138170
   177  C          0.14422000       0.16500130       0.69722000
   178  C          0.85578000       0.66500130       0.80278000
   179  C          0.85578000       0.83499870       0.30278000
   180  C          0.14422000       0.33499870       0.19722000
   181  C          0.14172000       0.05242130       0.60962000
   182  C          0.85828000       0.55242130       0.89038000
   183  C          0.85828000       0.94757870       0.39038000
   184  C          0.14172000       0.44757870       0.10962000
   185  C          0.21976190       0.02276120       0.71202000
   186  C          0.78023810       0.52276120       0.78798000
   187  C          0.78023810       0.97723880       0.28798000
   188  C          0.21976190       0.47723880       0.21202000
   189  C          0.18502000       0.98741870       0.79732000
   190  C          0.81498000       0.48741870       0.70268000
   191  C          0.81498000       0.01258130       0.20268000
   192  C          0.18502000       0.51258130       0.29732000
   193  C          0.25603000       0.96166860       0.89333000
   194  C          0.74397000       0.46166860       0.60667000
   195  C          0.74397000       0.03833140       0.10667000
   196  C          0.25603000       0.53833140       0.39333000
   197  C          0.36292000       0.97041850       0.90463000
   198  C          0.63708000       0.47041850       0.59537000
   199  C          0.63708000       0.02958150       0.09537000
   200  C          0.36292000       0.52958150       0.40463000
   201  C          0.39832000       0.00505150       0.82053000
   202  C          0.60168000       0.50505150       0.67947000
   203  C          0.60168000      -0.00505150       0.17947000
   204  C          0.39832000       0.49494850       0.32053000
   205  C          0.32702000       0.03127140       0.72472000
   206  C          0.67298000       0.53127140       0.77528000
   207  C          0.67298000       0.96872860       0.27528000
   208  C          0.32702000       0.46872860       0.22472000
   209  H          0.41169000       0.95258000       0.97020000
   210  H          0.58831000       0.45258000       0.52980000
   211  H          0.58831000       0.04742000       0.02980000
   212  H          0.41169000       0.54742000       0.47020000
   213  H          0.18008000       0.06917000       0.55254000
   214  H          0.81992000       0.56917000       0.94746000
   215  H          0.81992000       0.93083000       0.44746000
   216  H          0.18008000       0.43083000       0.05254000
   217  H          0.09337000       0.01636000       0.57152000
   218  H          0.90663000       0.51636000       0.92848000
   219  H          0.90663000       0.98364000       0.42848000
   220  H          0.09337000       0.48364000       0.07152000
   221  H          0.11179000       0.98087000       0.78951000
   222  H          0.88821000       0.48087000       0.71049000
   223  H          0.88821000       0.01913000       0.21049000
   224  H          0.11179000       0.51913000       0.28951000
   225  H          0.35199000       0.05528000       0.66724000
   226  H          0.64801000       0.55528000       0.83276000
   227  H          0.64801000       0.94472000       0.33276000
   228  H          0.35199000       0.44472000       0.16724000
   229  H          0.23141000       0.93803000       0.95143000
   230  H          0.76859000       0.43803000       0.54857000
   231  H          0.76859000       0.06197000       0.04857000
   232  H          0.23141000       0.56197000       0.45143000
   233  H          0.47158000       0.01101000       0.82812000
   234  H          0.52842000       0.51101000       0.67188000
   235  H          0.52842000       0.98899000       0.17188000
   236  H          0.47158000       0.48899000       0.32812000
   237  H          0.09938000       0.19935000       0.72033000
   238  H          0.90062000       0.69935000       0.77967000
   239  H          0.90062000       0.80065000       0.27967000
   240  H          0.09938000       0.30065000       0.22033000
   241  H          0.18139000       0.18469000       0.64240000
   242  H          0.81861000       0.68469000       0.85760000
   243  H          0.81861000       0.81531000       0.35760000
   244  H          0.18139000       0.31531000       0.14240000
   245  H          0.19541000       0.14868000       0.76599000
   246  H          0.80459000       0.64868000       0.73401000
   247  H          0.80459000       0.85132000       0.23401000
   248  H          0.19541000       0.35132000       0.26599000
   249  Cl         0.41890400       0.17781400       0.95953700
   250  Cl         0.58109600       0.67781400       0.54046300
   251  Cl         0.58109600       0.82218600       0.04046300
   252  Cl         0.41890400       0.32218600       0.45953700
   253  Cl         0.42217400       0.21359500       0.72075700
   254  Cl         0.57782600       0.71359500       0.77924300
   255  Cl         0.57782600       0.78640500       0.27924300
   256  Cl         0.42217400       0.28640500       0.22075700
   257  C          0.49568000       0.20654160       0.86532000
   258  C          0.50432000       0.70654160       0.63468000
   259  C          0.50432000       0.79345840       0.13468000
   260  C          0.49568000       0.29345840       0.36532000
   261  H          0.52596000       0.25112000       0.89232000
   262  H          0.47404000       0.75112000       0.60768000
   263  H          0.47404000       0.74888000       0.10768000
   264  H          0.52596000       0.24888000       0.39232000
   265  H          0.55468000       0.17480000       0.86840000
   266  H          0.44532000       0.67480000       0.63160000
   267  H          0.44532000       0.82520000       0.13160000
   268  H          0.55468000       0.32520000       0.36840000
