data_IBUBAM
_symmetry_space_group_name_H-M    'P1'
_symmetry_Int_Tables_number       1
loop_
_symmetry_equiv_pos_site_id
_symmetry_equiv_pos_as_xyz
1 x,y,z
_cell_length_a                   9.977613
_cell_length_b                   10.242713
_cell_length_c                   12.250116
_cell_angle_alpha                90.0
_cell_angle_beta                 106.8688
_cell_angle_gamma                90.0
loop_
_atom_site_label
_atom_site_type_symbol
_atom_site_fract_x
_atom_site_fract_y
_atom_site_fract_z
     1  Br         0.28120200       0.48943200       0.50484200
     2  Br         0.21879800      -0.01056800      -0.00484200
     3  Br         0.71879800       0.51056800       0.49515800
     4  Br         0.78120200       0.01056800       0.00484200
     5  O          0.18340150       0.39658130       0.23707110
     6  O          0.31659850       0.89658130       0.26292890
     7  O          0.81659850       0.60341870       0.76292890
     8  O          0.68340150       0.10341870       0.73707110
     9  O          0.24229180       0.18809140       0.57675120
    10  O          0.25770820       0.68809140       0.92324880
    11  O          0.75770820       0.81190860       0.42324880
    12  O          0.74229180       0.31190860       0.07675120
    13  N          0.21945170       0.31952140       0.41973130
    14  N          0.28054830       0.81952140       0.08026870
    15  N          0.78054830       0.68047860       0.58026870
    16  N          0.71945170       0.18047860       0.91973130
    17  C          0.13582000       0.10433180       0.38444160
    18  C          0.36418000       0.60433180       0.11555840
    19  C          0.86418000       0.89566820       0.61555840
    20  C          0.63582000       0.39566820       0.88444160
    21  C          0.20472000       0.20509180       0.47367160
    22  C          0.29528000       0.70509180       0.02632840
    23  C          0.79528000       0.79490820       0.52632840
    24  C          0.70472000       0.29490820       0.97367160
    25  C          0.17455190       0.31040170       0.30244160
    26  C          0.32544810       0.81040170       0.19755840
    27  C          0.82544810       0.68959830       0.69755840
    28  C          0.67455190       0.18959830       0.80244160
    29  C          0.11432000       0.17453180       0.27009160
    30  C          0.38568000       0.67453180       0.22990840
    31  C          0.88568000       0.82546820       0.72990840
    32  C          0.61432000       0.32546820       0.77009160
    33  H          0.04504000       0.07582000       0.39392000
    34  H          0.45496000       0.57582000       0.10608000
    35  H          0.95496000       0.92418000       0.60608000
    36  H          0.54504000       0.42418000       0.89392000
    37  H          0.19695000       0.02703000       0.38976000
    38  H          0.30305000       0.52703000       0.11024000
    39  H          0.80305000       0.97297000       0.61024000
    40  H          0.69695000       0.47297000       0.88976000
    41  H          0.16465000       0.12887000       0.22253000
    42  H          0.33535000       0.62887000       0.27747000
    43  H          0.83535000       0.87113000       0.77747000
    44  H          0.66465000       0.37113000       0.72253000
    45  H          0.01361000       0.17929000       0.22752000
    46  H          0.48639000       0.67929000       0.27248000
    47  H         -0.01361000       0.82071000       0.77248000
    48  H          0.51361000       0.32071000       0.72752000
    49  N          0.34382150       0.67347140       0.60041120
    50  N          0.15617850       0.17347140       0.89958880
    51  N          0.65617850       0.32652860       0.39958880
    52  N          0.84382150       0.82652860       0.10041120
    53  C          0.45602000       0.89033180       0.60135160
    54  C          0.04398000       0.39033180       0.89864840
    55  C          0.54398000       0.10966820       0.39864840
    56  C          0.95602000       0.60966820       0.10135160
    57  C          0.39992000       0.76628180       0.53140160
    58  C          0.10008000       0.26628180       0.96859840
    59  C          0.60008000       0.23371820       0.46859840
    60  C          0.89992000       0.73371820       0.03140160
    61  C          0.41992000       0.88427180       0.71425160
    62  C          0.08008000       0.38427180       0.78574840
    63  C          0.58008000       0.11572820       0.28574840
    64  C          0.91992000       0.61572820       0.21425160
    65  C          0.49462000       0.76715190       0.78228160
    66  C          0.00538000       0.26715190       0.71771840
    67  C          0.50538000       0.23284810       0.21771840
    68  C         -0.00538000       0.73284810       0.28228160
    69  C          0.45472000       0.64356180       0.70832160
    70  C          0.04528000       0.14356180       0.79167840
    71  C          0.54528000       0.35643820       0.29167840
    72  C          0.95472000       0.85643820       0.20832160
    73  C          0.22127190       0.73151190       0.62804170
    74  C          0.27872810       0.23151190       0.87195830
    75  C          0.77872810       0.26848810       0.37195830
    76  C          0.72127190       0.76848810       0.12804170
    77  C          0.26072000       0.86504180       0.68768160
    78  C          0.23928000       0.36504180       0.81231840
    79  C          0.73928000       0.13495820       0.31231840
    80  C          0.76072000       0.63495820       0.18768160
    81  H          0.55875000       0.89606000       0.61619000
    82  H          0.94125000       0.39606000       0.88381000
    83  H          0.44125000       0.10394000       0.38381000
    84  H          0.05875000       0.60394000       0.11619000
    85  H          0.41306000       0.96883000       0.55798000
    86  H          0.08694000       0.46883000       0.94202000
    87  H          0.58694000       0.03117000       0.44202000
    88  H          0.91306000       0.53117000       0.05798000
    89  H          0.32489000       0.79036000       0.46164000
    90  H          0.17511000       0.29036000       0.03836000
    91  H          0.67511000       0.20964000       0.53836000
    92  H          0.82489000       0.70964000       0.96164000
    93  H          0.47638000       0.72404000       0.50788000
    94  H          0.02362000       0.22404000      -0.00788000
    95  H          0.52362000       0.27596000       0.49212000
    96  H          0.97638000       0.77596000       0.00788000
    97  H          0.44941000       0.96664000       0.75851000
    98  H          0.05059000       0.46664000       0.74149000
    99  H          0.55059000       0.03336000       0.24149000
   100  H          0.94941000       0.53336000       0.25851000
   101  H          0.46662000       0.75731000       0.85304000
   102  H          0.03338000       0.25731000       0.64696000
   103  H          0.53338000       0.24269000       0.14696000
   104  H          0.96662000       0.74269000       0.35304000
   105  H          0.59725000       0.78047000       0.80375000
   106  H          0.90275000       0.28047000       0.69625000
   107  H          0.40275000       0.21953000       0.19625000
   108  H          0.09725000       0.71953000       0.30375000
   109  H          0.53847000       0.60891000       0.69037000
   110  H          0.96153000       0.10891000       0.80963000
   111  H          0.46153000       0.39109000       0.30963000
   112  H          0.03847000       0.89109000       0.19037000
   113  H          0.42043000       0.57576000       0.75127000
   114  H          0.07957000       0.07576000       0.74873000
   115  H          0.57957000       0.42424000       0.24873000
   116  H          0.92043000       0.92424000       0.25127000
   117  H          0.18896000       0.67174000       0.67871000
   118  H          0.31104000       0.17174000       0.82129000
   119  H          0.81104000       0.32826000       0.32129000
   120  H          0.68896000       0.82826000       0.17871000
   121  H          0.14357000       0.74318000       0.55706000
   122  H          0.35643000       0.24318000       0.94294000
   123  H          0.85643000       0.25682000       0.44294000
   124  H          0.64357000       0.75682000       0.05706000
   125  H          0.21054000       0.93601000       0.63732000
   126  H          0.28946000       0.43601000       0.86268000
   127  H          0.78946000       0.06399000       0.36268000
   128  H          0.71054000       0.56399000       0.13732000
   129  H          0.23340000       0.86736000       0.75918000
   130  H          0.26660000       0.36736000       0.74082000
   131  H          0.76660000       0.13264000       0.24082000
   132  H          0.73340000       0.63264000       0.25918000
