data_IBUJAQ
_symmetry_space_group_name_H-M    'P1'
_symmetry_Int_Tables_number       1
loop_
_symmetry_equiv_pos_site_id
_symmetry_equiv_pos_as_xyz
1 x,y,z
_cell_length_a                   4.56171
_cell_length_b                   10.468419
_cell_length_c                   11.366019
_cell_angle_alpha                80.31113
_cell_angle_beta                 82.18614
_cell_angle_gamma                82.38316
loop_
_atom_site_label
_atom_site_type_symbol
_atom_site_fract_x
_atom_site_fract_y
_atom_site_fract_z
     1  Cl         0.36525000       0.83278160       0.95181150
     2  Cl         0.74261000       0.17922000       0.64953000
     3  O          0.18541300       0.44584000       0.59984000
     4  H          0.28130000       0.44210000       0.53370000
     5  O          0.51401500       0.57774000       0.61364000
     6  O          0.21481200       0.64133000       0.82374000
     7  C          0.29820000       0.52365000       0.65526000
     8  C          0.13220000       0.53395000       0.77726000
     9  H          0.91660000       0.54290000       0.77390000
    10  C          0.23030000       0.41146000       0.86417000
    11  H          0.11910000       0.41480000       0.94190000
    12  H          0.43850000       0.40770000       0.87050000
    13  H          0.19250000       0.33520000       0.83440000
    14  C          0.10201600       0.76365000       0.77345000
    15  C          0.16071900       0.86456000       0.83006000
    16  C          0.05130000      -0.00723000       0.79129000
    17  H          0.08850000       0.06040000       0.82860000
    18  C          0.88580000       0.01656000       0.69678000
    19  C          0.81780000       0.92086000       0.64417000
    20  H          0.69770000       0.94030000       0.58210000
    21  C          0.92758200       0.79146000       0.68287000
    22  H          0.88110000       0.72460000       0.64650000
    23  Cl         0.65455000       0.16244160       0.04656150
    24  O          0.81351300       0.55784000       0.39584000
    25  H          0.72200000       0.56210000       0.46250000
    26  O          0.48861300       0.41834000       0.38654000
    27  O          0.79001100       0.35553000       0.17473000
    28  O          0.24171500       0.76526000       0.28426000
    29  O          0.44641700       0.83595000       0.42225000
    30  N          0.28491800       0.85075000       0.33847000
    31  C          0.70220000       0.47705000       0.34486000
    32  C          0.86361900       0.46515000       0.22016000
    33  H          0.07900000       0.45690000       0.22320000
    34  C          0.77420000       0.58375000       0.13156000
    35  H          0.88350000       0.57650000       0.05420000
    36  H          0.81670000       0.66060000       0.15860000
    37  H          0.56450000       0.58940000       0.12550000
    38  C          0.91521900       0.23425000       0.21926000
    39  C          0.86441700       0.13075000       0.16596000
    40  C         -0.01998100       0.00606000       0.20587000
    41  H          0.94320000       0.93700000       0.17000000
    42  C          0.15041900       0.98364000       0.29907000
    43  C          0.19920000       0.08426000       0.35897000
    44  H          0.30840000       0.06730000       0.42410000
    45  C          0.08120000       0.20636000       0.31887000
    46  H          0.10890000       0.27420000       0.35790000
