data_ICUGIW
_symmetry_space_group_name_H-M    'P1'
_symmetry_Int_Tables_number       1
loop_
_symmetry_equiv_pos_site_id
_symmetry_equiv_pos_as_xyz
1 x,y,z
_cell_length_a                   14.5353
_cell_length_b                   12.6212
_cell_length_c                   18.0474
_cell_angle_alpha                90.0
_cell_angle_beta                 109.842
_cell_angle_gamma                90.0
loop_
_atom_site_label
_atom_site_type_symbol
_atom_site_fract_x
_atom_site_fract_y
_atom_site_fract_z
     1  I          0.76060400       0.15918500       0.82290400
     2  I          0.73939600       0.65918500       0.67709600
     3  I          0.23939600       0.84081500       0.17709600
     4  I          0.26060400       0.34081500       0.32290400
     5  I          0.59299500       0.89240500       0.75274500
     6  I          0.90700500       0.39240500       0.74725500
     7  I          0.40700500       0.10759500       0.24725500
     8  I          0.09299500       0.60759500       0.25274500
     9  I          0.32236500       0.98169400       0.59849400
    10  I          0.17763500       0.48169400       0.90150600
    11  I          0.67763500       0.01830600       0.40150600
    12  I          0.82236500       0.51830600       0.09849400
    13  I          0.32948500       0.30170600       0.57031400
    14  I          0.17051500       0.80170600       0.92968600
    15  I          0.67051500       0.69829400       0.42968600
    16  I          0.82948500       0.19829400       0.07031400
    17  I          0.60189500       0.41035500       0.71149400
    18  I          0.89810500       0.91035500       0.78850600
    19  I          0.39810500       0.58964500       0.28850600
    20  I          0.10189500       0.08964500       0.21149400
    21  I          0.57300500       0.11932600       0.59115400
    22  I          0.92699500       0.61932600       0.90884600
    23  I          0.42699500       0.88067400       0.40884600
    24  I          0.07300500       0.38067400       0.09115400
    25  Cl         0.60418170       0.32596190       0.91882130
    26  Cl         0.89581830       0.82596190       0.58117870
    27  Cl         0.39581830       0.67403810       0.08117870
    28  Cl         0.10418170       0.17403810       0.41882130
    29  Cl         0.59812180       0.05312000       0.94538140
    30  Cl         0.90187820       0.55312000       0.55461860
    31  Cl         0.40187820       0.94688000       0.05461860
    32  Cl         0.09812180       0.44688000       0.44538140
    33  Cl         0.37049180       0.95928000       0.82856150
    34  Cl         0.12950820       0.45928000       0.67143850
    35  Cl         0.62950820       0.04072000       0.17143850
    36  Cl         0.87049180       0.54072000       0.32856150
    37  Cl         0.23318160       0.17652000       0.72876150
    38  Cl         0.26681840       0.67652000       0.77123850
    39  Cl         0.76681840       0.82348000       0.27123850
    40  Cl         0.73318160       0.32348000       0.22876150
    41  Cl         0.37709170       0.40062000       0.78730150
    42  Cl         0.12290830       0.90062000       0.71269850
    43  Cl         0.62290830       0.59938000       0.21269850
    44  Cl         0.87709170       0.09938000       0.28730150
    45  N          0.44245000       0.18085000       0.83074000
    46  N          0.05755000       0.68085000       0.66926000
    47  N          0.55755000       0.81915000       0.16926000
    48  N          0.94245000       0.31915000       0.33074000
    49  H          0.41570000       0.19210000       0.87690000
    50  H          0.08430000       0.69210000       0.62310000
    51  H          0.58430000       0.80790000       0.12310000
    52  H          0.91570000       0.30790000       0.37690000
    53  B          0.54618000       0.24428000       0.83676000
    54  B          0.95382000       0.74428000       0.66324000
    55  B          0.45382000       0.75572000       0.16324000
    56  B          0.04618000       0.25572000       0.33676000
    57  B          0.54458000       0.10459000       0.85037000
    58  B          0.95542000       0.60459000       0.64963000
    59  B          0.45542000       0.89541000       0.14963000
    60  B          0.04458000       0.39541000       0.35037000
    61  B          0.42777000       0.05969000       0.78896000
    62  B          0.07223000       0.55969000       0.71104000
    63  B          0.57223000       0.94031000       0.21104000
    64  B          0.92777000       0.44031000       0.28896000
    65  B          0.35807000       0.16839000       0.73986000
    66  B          0.14193000       0.66839000       0.76014000
    67  B          0.64193000       0.83161000       0.26014000
    68  B          0.85807000       0.33161000       0.23986000
    69  B          0.43278000       0.28428000       0.77046000
    70  B          0.06722000       0.78428000       0.72954000
    71  B          0.56722000       0.71572000       0.22954000
    72  B          0.93278000       0.21572000       0.27046000
    73  B          0.60437000       0.15969000       0.78777000
    74  B          0.89563000       0.65969000       0.71223000
    75  B          0.39563000       0.84031000       0.21223000
    76  B          0.10437000       0.34031000       0.28777000
    77  B          0.52997000       0.04218000       0.75946000
    78  B          0.97003000       0.54218000       0.74054000
    79  B          0.47003000       0.95782000       0.24054000
    80  B          0.02997000       0.45782000       0.25946000
    81  B          0.41188000       0.08389000       0.68946000
    82  B          0.08812000       0.58389000       0.81054000
    83  B          0.58812000       0.91611000       0.31054000
    84  B          0.91188000       0.41611000       0.18946000
    85  B          0.41577000       0.22498000       0.67606000
    86  B          0.08423000       0.72498000       0.82394000
    87  B          0.58423000       0.77502000       0.32394000
    88  B          0.91577000       0.27502000       0.17606000
    89  B          0.53507000       0.27257000       0.73826000
    90  B          0.96493000       0.77257000       0.76174000
    91  B          0.46493000       0.72743000       0.26174000
    92  B          0.03507000       0.22743000       0.23826000
    93  B          0.52058000       0.14758000       0.68766000
    94  B          0.97942000       0.64758000       0.81234000
    95  B          0.47942000       0.85242000       0.31234000
    96  B          0.02058000       0.35242000       0.18766000
    97  O          0.73436000       0.35416000       0.48435000
    98  O          0.76564000       0.85416000       0.01565000
    99  O          0.26564000       0.64584000       0.51565000
   100  O          0.23436000       0.14584000       0.98435000
   101  C          0.67078000       0.38591000       0.52717000
   102  C          0.82922000       0.88591000       0.97283000
   103  C          0.32922000       0.61409000       0.47283000
   104  C          0.17078000       0.11409000       0.02717000
   105  H          0.69170000       0.45420000       0.55310000
   106  H          0.80830000       0.95420000       0.94690000
   107  H          0.30830000       0.54580000       0.44690000
   108  H          0.19170000       0.04580000       0.05310000
   109  H          0.67230000       0.33310000       0.56730000
   110  H          0.82770000       0.83310000       0.93270000
   111  H          0.32770000       0.66690000       0.43270000
   112  H          0.17230000       0.16690000       0.06730000
   113  C          0.57051200       0.39441200       0.46859000
   114  C          0.92948800       0.89441200       0.03141000
   115  C          0.42948800       0.60558800       0.53141000
   116  C          0.07051200       0.10558800       0.96859000
   117  H          0.52210000       0.36370000       0.48910000
   118  H          0.97790000       0.86370000       0.01090000
   119  H          0.47790000       0.63630000       0.51090000
   120  H          0.02210000       0.13630000       0.98910000
   121  H          0.55330000       0.46850000       0.45410000
   122  H          0.94670000       0.96850000       0.04590000
   123  H          0.44670000       0.53150000       0.54590000
   124  H          0.05330000       0.03150000       0.95410000
   125  C          0.57591600       0.33451400       0.40151200
   126  C          0.92408400       0.83451400       0.09848800
   127  C          0.42408400       0.66548600       0.59848800
   128  C          0.07591600       0.16548600       0.90151200
   129  H          0.52750000       0.36100000       0.35280000
   130  H          0.97250000       0.86100000       0.14720000
   131  H          0.47250000       0.63900000       0.64720000
   132  H          0.02750000       0.13900000       0.85280000
   133  H          0.56230000       0.25950000       0.40730000
   134  H          0.93770000       0.75950000       0.09270000
   135  H          0.43770000       0.74050000       0.59270000
   136  H          0.06230000       0.24050000       0.90730000
   137  C          0.67631700       0.34751300       0.39888000
   138  C          0.82368300       0.84751300       0.10112000
   139  C          0.32368300       0.65248700       0.60112000
   140  C          0.17631700       0.15248700       0.89888000
   141  H          0.69580000       0.28650000       0.37390000
   142  H          0.80420000       0.78650000       0.12610000
   143  H          0.30420000       0.71350000       0.62610000
   144  H          0.19580000       0.21350000       0.87390000
   145  H          0.68230000       0.41230000       0.37090000
   146  H          0.81770000       0.91230000       0.12910000
   147  H          0.31770000       0.58770000       0.62910000
   148  H          0.18230000       0.08770000       0.87090000
   149  O          0.33305000       0.29746000       0.02764000
   150  O          0.16695000       0.79746000       0.47236000
   151  O          0.66695000       0.70254000       0.97236000
   152  O          0.83305000       0.20254000       0.52764000
   153  C          0.42411000       0.29271300       0.01058000
   154  C          0.07589000       0.79271300       0.48942000
   155  C          0.57589000       0.70728700       0.98942000
   156  C          0.92411000       0.20728700       0.51058000
   157  H          0.44820000       0.21960000       0.01440000
   158  H          0.05180000       0.71960000       0.48560000
   159  H          0.55180000       0.78040000       0.98560000
   160  H          0.94820000       0.28040000       0.51440000
   161  H          0.41420000       0.31900000       0.95730000
   162  H          0.08580000       0.81900000       0.54270000
   163  H          0.58580000       0.68100000       0.04270000
   164  H          0.91420000       0.18100000       0.45730000
   165  C          0.49241000       0.35841600       0.06828000
   166  C          0.00759000       0.85841600       0.43172000
   167  C          0.50759000       0.64158400       0.93172000
   168  C         -0.00759000       0.14158400       0.56828000
   169  H          0.49260000       0.43010000       0.04740000
   170  H          0.00740000       0.93010000       0.45260000
   171  H          0.50740000       0.56990000       0.95260000
   172  H         -0.00740000       0.06990000       0.54740000
   173  H          0.55850000       0.32910000       0.08260000
   174  H          0.94150000       0.82910000       0.41740000
   175  H          0.44150000       0.67090000       0.91740000
   176  H          0.05850000       0.17090000       0.58260000
   177  C          0.46129000       0.36091000       0.13567000
   178  C          0.03871000       0.86091000       0.36433000
   179  C          0.53871000       0.63909000       0.86433000
   180  C          0.96129000       0.13909000       0.63567000
   181  H          0.48070000       0.42740000       0.16460000
   182  H          0.01930000       0.92740000       0.33540000
   183  H          0.51930000       0.57260000       0.83540000
   184  H          0.98070000       0.07260000       0.66460000
   185  H          0.48950000       0.30160000       0.17110000
   186  H          0.01050000       0.80160000       0.32890000
   187  H          0.51050000       0.69840000       0.82890000
   188  H         -0.01050000       0.19840000       0.67110000
   189  C          0.35359000       0.35181000       0.10308000
   190  C          0.14641000       0.85181000       0.39692000
   191  C          0.64641000       0.64819000       0.89692000
   192  C          0.85359000       0.14819000       0.60308000
   193  H          0.32880000       0.31070000       0.13840000
   194  H          0.17120000       0.81070000       0.36160000
   195  H          0.67120000       0.68930000       0.86160000
   196  H          0.82880000       0.18930000       0.63840000
   197  H          0.32290000       0.42200000       0.09530000
   198  H          0.17710000       0.92200000       0.40470000
   199  H          0.67710000       0.57800000       0.90470000
   200  H          0.82290000       0.07800000       0.59530000
