data_ICUXAG
_symmetry_space_group_name_H-M    'P1'
_symmetry_Int_Tables_number       1
loop_
_symmetry_equiv_pos_site_id
_symmetry_equiv_pos_as_xyz
1 x,y,z
_cell_length_a                   5.97234
_cell_length_b                   7.93411
_cell_length_c                   12.596615
_cell_angle_alpha                99.42811
_cell_angle_beta                 99.05011
_cell_angle_gamma                99.0859
loop_
_atom_site_label
_atom_site_type_symbol
_atom_site_fract_x
_atom_site_fract_y
_atom_site_fract_z
     1  C          0.90027000       0.29225000       0.91297000
     2  C          0.09973000       0.70775000       0.08703000
     3  C          0.64198000       0.38825000       0.76006000
     4  C          0.35802000       0.61175000       0.23994000
     5  H          0.51480000       0.41860000       0.71670000
     6  H          0.48520000       0.58140000       0.28330000
     7  C          0.84597000       0.38985000       0.72806000
     8  C          0.15403000       0.61015000       0.27194000
     9  C          0.91077000       0.44075000       0.62837000
    10  C          0.08923000       0.55925000       0.37163000
    11  O          0.73995000       0.47274000       0.56127000
    12  O          0.26005000       0.52726000       0.43873000
    13  H          0.77820000       0.47710000       0.50030000
    14  H          0.22180000       0.52290000       0.49970000
    15  O          0.11025000       0.44824000       0.61468000
    16  O          0.88975000       0.55176000       0.38532000
    17  S          0.01817180       0.22708140       0.02482900
    18  S         -0.01817180       0.77291860       0.97517100
    19  S          0.62289180       0.32819140       0.88435100
    20  S          0.37710820       0.67180860       0.11564900
    21  S          0.05865170       0.32862130       0.81476100
    22  S          0.94134830       0.67137870       0.18523900
    23  I          0.34390500       0.12990300       0.27735200
    24  I          0.65609500       0.87009700       0.72264800
    25  I          0.67389400       0.18045300       0.14267200
    26  I          0.32610600       0.81954700       0.85732800
    27  I          0.80678500       0.02826400       0.43747200
    28  I          0.19321500       0.97173600       0.56252800
