data_IDELIO
_symmetry_space_group_name_H-M    'P1'
_symmetry_Int_Tables_number       1
loop_
_symmetry_equiv_pos_site_id
_symmetry_equiv_pos_as_xyz
1 x,y,z
_cell_length_a                   14.34513
_cell_length_b                   11.02563
_cell_length_c                   7.314701
_cell_angle_alpha                90.0
_cell_angle_beta                 112.02201
_cell_angle_gamma                90.0
loop_
_atom_site_label
_atom_site_type_symbol
_atom_site_fract_x
_atom_site_fract_y
_atom_site_fract_z
     1  N          0.58514600       0.92079900       0.28706120
     2  N          0.41485400       0.92079900       0.21293880
     3  N          0.08514600       0.42079900       0.28706120
     4  N          0.91485400       0.42079900       0.21293880
     5  N          0.41485400       0.07920100       0.71293880
     6  N          0.58514600       0.07920100       0.78706120
     7  N          0.91485400       0.57920100       0.71293880
     8  N          0.08514600       0.57920100       0.78706120
     9  C          0.50000000      -0.01198860       0.25000000
    10  C         -0.00000000       0.48801140       0.25000000
    11  C          0.50000000       0.01198860       0.75000000
    12  C         -0.00000000       0.51198860       0.75000000
    13  C          0.50000000       0.11628140       0.25000000
    14  C         -0.00000000       0.61628140       0.25000000
    15  C          0.50000000       0.88371860       0.75000000
    16  C         -0.00000000       0.38371860       0.75000000
    17  C          0.59334800       0.17579100       0.29456140
    18  C          0.40665200       0.17579100       0.20543860
    19  C          0.09334800       0.67579100       0.29456140
    20  C          0.90665200       0.67579100       0.20543860
    21  C          0.40665200       0.82420900       0.70543860
    22  C          0.59334800       0.82420900       0.79456140
    23  C          0.90665200       0.32420900       0.70543860
    24  C          0.09334800       0.32420900       0.79456140
    25  H          0.59680000       0.26000000       0.29620000
    26  H          0.40320000       0.26000000       0.20380000
    27  H          0.09680000       0.76000000       0.29620000
    28  H          0.90320000       0.76000000       0.20380000
    29  H          0.40320000       0.74000000       0.70380000
    30  H          0.59680000       0.74000000       0.79620000
    31  H          0.90320000       0.24000000       0.70380000
    32  H          0.09680000       0.24000000       0.79620000
    33  C          0.67815800       0.10787100       0.33506150
    34  C          0.32184200       0.10787100       0.16493850
    35  C          0.17815800       0.60787100       0.33506150
    36  C          0.82184200       0.60787100       0.16493850
    37  C          0.32184200       0.89212900       0.66493850
    38  C          0.67815800       0.89212900       0.83506150
    39  C          0.82184200       0.39212900       0.66493850
    40  C          0.17815800       0.39212900       0.83506150
    41  H          0.74020000       0.14550000       0.36640000
    42  H          0.25980000       0.14550000       0.13360000
    43  H          0.24020000       0.64550000       0.36640000
    44  H          0.75980000       0.64550000       0.13360000
    45  H          0.25980000       0.85450000       0.63360000
    46  H          0.74020000       0.85450000       0.86640000
    47  H          0.75980000       0.35450000       0.63360000
    48  H          0.24020000       0.35450000       0.86640000
    49  C          0.67132800       0.97941100       0.32925150
    50  C          0.32867200       0.97941100       0.17074850
    51  C          0.17132800       0.47941100       0.32925150
    52  C          0.82867200       0.47941100       0.17074850
    53  C          0.32867200       0.02058900       0.67074850
    54  C          0.67132800       0.02058900       0.82925150
    55  C          0.82867200       0.52058900       0.67074850
    56  C          0.17132800       0.52058900       0.82925150
    57  C          0.76467800       0.90438110       0.37574170
    58  C          0.23532200       0.90438110       0.12425830
    59  C          0.26467800       0.40438110       0.37574170
    60  C          0.73532200       0.40438110       0.12425830
    61  C          0.23532200       0.09561890       0.62425830
    62  C          0.76467800       0.09561890       0.87574170
    63  C          0.73532200       0.59561890       0.62425830
    64  C          0.26467800       0.59561890       0.87574170
    65  H          0.74660000       0.82410000       0.32370000
    66  H          0.25340000       0.82410000       0.17630000
    67  H          0.24660000       0.32410000       0.32370000
    68  H          0.75340000       0.32410000       0.17630000
    69  H          0.25340000       0.17590000       0.67630000
    70  H          0.74660000       0.17590000       0.82370000
    71  H          0.75340000       0.67590000       0.67630000
    72  H          0.24660000       0.67590000       0.82370000
    73  H          0.79960000       0.90000000       0.51610000
    74  H          0.20040000       0.90000000      -0.01610000
    75  H          0.29960000       0.40000000       0.51610000
    76  H          0.70040000       0.40000000      -0.01610000
    77  H          0.20040000       0.10000000       0.48390000
    78  H          0.79960000       0.10000000       0.01610000
    79  H          0.70040000       0.60000000       0.48390000
    80  H          0.29960000       0.60000000       0.01610000
    81  H          0.80750000       0.94100000       0.31720000
    82  H          0.19250000       0.94100000       0.18280000
    83  H          0.30750000       0.44100000       0.31720000
    84  H          0.69250000       0.44100000       0.18280000
    85  H          0.19250000       0.05900000       0.68280000
    86  H          0.80750000       0.05900000       0.81720000
    87  H          0.69250000       0.55900000       0.68280000
    88  H          0.30750000       0.55900000       0.81720000
    89  O         -0.00000000       0.02662900       0.75000000
    90  O          0.50000000       0.52662900       0.75000000
    91  O         -0.00000000       0.97337100       0.25000000
    92  O          0.50000000       0.47337100       0.25000000
    93  N          0.02576700       0.84887900       0.61934140
    94  N          0.97423300       0.84887900       0.88065860
    95  N          0.52576700       0.34887900       0.61934140
    96  N          0.47423300       0.34887900       0.88065860
    97  N          0.97423300       0.15112100       0.38065860
    98  N          0.02576700       0.15112100       0.11934140
    99  N          0.47423300       0.65112100       0.38065860
   100  N          0.52576700       0.65112100       0.11934140
   101  C         -0.00000000       0.91296130       0.75000000
   102  C          0.50000000       0.41296130       0.75000000
   103  C         -0.00000000       0.08703870       0.25000000
   104  C          0.50000000       0.58703870       0.25000000
   105  H          0.02871000       0.76991400       0.62841900
   106  H          0.97129000       0.76991400       0.87158100
   107  H          0.52871000       0.26991400       0.62841900
   108  H          0.47129000       0.26991400       0.87158100
   109  H          0.97129000       0.23008600       0.37158100
   110  H          0.02871000       0.23008600       0.12841900
   111  H          0.47129000       0.73008600       0.37158100
   112  H          0.52871000       0.73008600       0.12841900
   113  H          0.02471000       0.88571300       0.51320000
   114  H          0.97529000       0.88571300      -0.01320000
   115  H          0.52471000       0.38571300       0.51320000
   116  H          0.47529000       0.38571300      -0.01320000
   117  H          0.97529000       0.11428700       0.48680000
   118  H          0.02471000       0.11428700       0.01320000
   119  H          0.47529000       0.61428700       0.48680000
   120  H          0.52471000       0.61428700       0.01320000
