data_IDULOM
_symmetry_space_group_name_H-M    'P1'
_symmetry_Int_Tables_number       1
loop_
_symmetry_equiv_pos_site_id
_symmetry_equiv_pos_as_xyz
1 x,y,z
_cell_length_a                   14.23125
_cell_length_b                   14.61536
_cell_length_c                   15.71475
_cell_angle_alpha                115.6244
_cell_angle_beta                 94.4843
_cell_angle_gamma                101.1633
loop_
_atom_site_label
_atom_site_type_symbol
_atom_site_fract_x
_atom_site_fract_y
_atom_site_fract_z
     1  S          0.96945200       0.23740100       0.30930900
     2  S          0.03054800       0.76259900       0.69069100
     3  S          0.75005800       0.44703900       0.35573900
     4  S          0.24994200       0.55296100       0.64426100
     5  S          0.51012100       0.37642110       0.85805900
     6  S          0.48987900       0.62357890       0.14194100
     7  N          0.14693000       0.35993000       0.39423000
     8  N          0.85307000       0.64007000       0.60577000
     9  H          0.18530000       0.42320000       0.43630000
    10  H          0.81470000       0.57680000       0.56370000
    11  N          0.02933000       0.44443000       0.38653000
    12  N          0.97067000       0.55557000       0.61347000
    13  H          0.96448400       0.43740000       0.37440000
    14  H          0.03551600       0.56260000       0.62560000
    15  N          0.59983000       0.30443000       0.35413000
    16  N          0.40017000       0.69557000       0.64587000
    17  H          0.57030000       0.24320000       0.34930000
    18  H          0.42970000       0.75680000       0.65070000
    19  N          0.74053000       0.25313000       0.32224000
    20  N          0.25947000       0.74687000       0.67776000
    21  H          0.80020000       0.26840000       0.30840000
    22  H          0.19980000       0.73160000       0.69160000
    23  N          0.42783000       0.43593000       0.73892000
    24  N          0.57217000       0.56407000       0.26108000
    25  H          0.39630000       0.47630000       0.72530000
    26  H          0.60370000       0.52370000       0.27470000
    27  N          0.46213000       0.55453000       0.89813000
    28  N          0.53787000       0.44547000       0.10187000
    29  H          0.48340000       0.56140000       0.95620000
    30  H          0.51660000       0.43860000       0.04380000
    31  C          0.28713000       0.29723000       0.42613000
    32  C          0.71287000       0.70277000       0.57387000
    33  C          0.36353000       0.32273000       0.38163000
    34  C          0.63647000       0.67727000       0.61837000
    35  C          0.46013000       0.35393000       0.43023000
    36  C          0.53987000       0.64607000       0.56977000
    37  C          0.48033000       0.35893000       0.52073000
    38  C          0.51967000       0.64107000       0.47927000
    39  C          0.40323000       0.33163000       0.56283000
    40  C          0.59677000       0.66837000       0.43717000
    41  C          0.30593000       0.30243000       0.51633000
    42  C          0.69407000       0.69757000       0.48367000
    43  C          0.18213000       0.26604000       0.37543000
    44  C          0.81787000       0.73396000       0.62457000
    45  H          0.17776100       0.22412400       0.30539300
    46  H          0.82223900       0.77587600       0.69460700
    47  H          0.14059900       0.22203900       0.39840300
    48  H          0.85940100       0.77796100       0.60159700
    49  C          0.05373000       0.35464000       0.36693000
    50  C          0.94627000       0.64536000       0.63307000
    51  C          0.09793000       0.54614000       0.41874000
    52  C          0.90207000       0.45386000       0.58126000
    53  H          0.14707900       0.53902900       0.37660200
    54  H          0.85292100       0.46097100       0.62339800
    55  H          0.13225400       0.57073600       0.48493200
    56  H          0.86774600       0.42926400       0.51506800
    57  C          0.04463000       0.62634000       0.41634000
    58  C          0.95537000       0.37366000       0.58366000
    59  H          0.00361700       0.59704000       0.35206200
    60  H         -0.00361700       0.40296000       0.64793800
    61  H          0.00087800       0.63881700       0.46399500
    62  H         -0.00087800       0.36118300       0.53600500
    63  C          0.11324000       0.72975000       0.43775000
    64  C          0.88676000       0.27025000       0.56225000
    65  H          0.15197200       0.71839500       0.38603400
    66  H          0.84802800       0.28160500       0.61396600
    67  H          0.15894700       0.75512800       0.49862500
    68  H          0.84105300       0.24487200       0.50137500
    69  C          0.06065000       0.81315000       0.44586000
    70  C          0.93935000       0.18685000       0.55414000
    71  H          0.10835000       0.87816900       0.45962600
    72  H          0.89165000       0.12183100       0.54037400
    73  H          0.01628400       0.78919800       0.38518000
    74  H          0.98371600       0.21080200       0.61482000
    75  H          0.02326200       0.82594600       0.49781800
    76  H          0.97673800       0.17405400       0.50218200
    77  C          0.54363000       0.38354000       0.38553000
    78  C          0.45637000       0.61646000       0.61447000
    79  H          0.51750800       0.39182600       0.32971700
    80  H          0.48249200       0.60817400       0.67028300
    81  H          0.58715900       0.45173800       0.43290600
    82  H          0.41284100       0.54826200       0.56709400
    83  C          0.69223000       0.32583000       0.34193000
    84  C          0.30777000       0.67417000       0.65807000
    85  C          0.70534000       0.14614000       0.30615000
    86  C          0.29466000       0.85386000       0.69385000
    87  H          0.75891300       0.12534200       0.33164200
    88  H          0.24108700       0.87465800       0.66835800
    89  H          0.65228800       0.14304300       0.34275400
    90  H          0.34771200       0.85695700       0.65724600
    91  C          0.67016000       0.07235000       0.20806000
    92  C          0.32984000       0.92765000       0.79194000
    93  H          0.61498200       0.09168600       0.18319400
    94  H          0.38501800       0.90831400       0.81680600
    95  H          0.64461500       0.00222400       0.20388200
    96  H          0.35538500      -0.00222400       0.79611800
    97  C          0.74646000       0.06495000       0.14335000
    98  C          0.25354000       0.93505000       0.85665000
    99  H          0.77026800       0.13402600       0.14497500
   100  H          0.22973200       0.86597400       0.85502500
   101  H          0.80251100       0.04728200       0.16861400
   102  H          0.19748900       0.95271800       0.83138600
   103  C          0.70698000       0.98473000       0.04276000
   104  C          0.29302000       0.01527000       0.95724000
   105  H          0.75805100       0.98270000       0.00404900
   106  H          0.24194900       0.01730000      -0.00404900
   107  H          0.68444300       0.91589100       0.04052000
   108  H          0.31555700       0.08410900       0.95948000
   109  H          0.65220400       0.00262300       0.01688400
   110  H          0.34779600      -0.00262300       0.98311600
   111  C          0.42484000       0.33304000       0.65953000
   112  C          0.57516000       0.66696000       0.34047000
   113  H          0.37401500       0.27838600       0.66273100
   114  H          0.62598500       0.72161400       0.33726900
   115  H          0.48831400       0.31632700       0.66639100
   116  H          0.51168600       0.68367300       0.33360900
   117  C          0.46313000       0.46144000       0.83013000
   118  C          0.53687000       0.53856000       0.16987000
   119  C          0.43535000       0.64005000       0.88524000
   120  C          0.56465000       0.35995000       0.11476000
   121  H          0.36982100       0.61403000       0.84459300
   122  H          0.63017900       0.38597000       0.15540700
   123  H          0.48238300       0.66523700       0.85209300
   124  H          0.51761700       0.33476300       0.14790700
   125  C          0.43506000       0.72976000       0.98165000
   126  C          0.56494000       0.27024000       0.01835000
   127  H          0.38458200       0.70367200       0.01145900
   128  H          0.61541800       0.29632800       0.98854100
   129  H          0.49876800       0.74895600       0.02334700
   130  H          0.50123200       0.25104400       0.97665300
   131  C          0.41807000       0.82146000       0.98147000
   132  C          0.58193000       0.17854000       0.01853000
   133  H          0.35585100       0.80430500       0.93814600
   134  H          0.64414900       0.19569500       0.06185400
   135  H          0.47124800       0.85358200       0.95818800
   136  H          0.52875200       0.14641800       0.04181200
   137  C          0.41349000       0.89948000       0.08658000
   138  C          0.58651000       0.10052000       0.91342000
   139  H          0.40164200       0.96397700       0.08805600
   140  H          0.59835800       0.03602300       0.91194400
   141  H          0.36038700       0.86703800       0.10865500
   142  H          0.63961300       0.13296200       0.89134500
   143  H          0.47536500       0.91613500       0.12862400
   144  H          0.52463500       0.08386500       0.87137600
   145  C          0.33964000       0.31374000       0.28253000
   146  C          0.66036000       0.68626000       0.71747000
   147  H          0.38575400       0.37056600       0.27758000
   148  H          0.61424600       0.62943400       0.72242000
   149  H          0.27312700       0.32295100       0.27270100
   150  H          0.72687300       0.67704900       0.72729900
   151  C          0.34495000       0.20875000       0.20424000
   152  C          0.65505000       0.79125000       0.79576000
   153  H          0.32888200       0.20626200       0.14129300
   154  H          0.67111800       0.79373800       0.85870700
   155  H          0.41089600       0.19982800       0.21275400
   156  H          0.58910400       0.80017200       0.78724600
   157  H          0.29828800       0.15222100       0.20787600
   158  H          0.70171200       0.84777900       0.79212400
   159  C          0.58383000       0.39484000       0.57654000
   160  C          0.41617000       0.60516000       0.42346000
   161  H          0.58361000       0.43859400       0.64521400
   162  H          0.41639000       0.56140600       0.35478600
   163  H          0.62503600       0.43944700       0.55385200
   164  H          0.37496400       0.56055300       0.44614800
   165  C          0.62964000       0.30515000       0.56684000
   166  C          0.37036000       0.69485000       0.43316000
   167  H          0.69592400       0.33411200       0.60447800
   168  H          0.30407600       0.66588800       0.39552200
   169  H          0.59042600       0.26146800       0.59067800
   170  H          0.40957400       0.73853200       0.40932200
   171  H          0.63191000       0.26232300       0.49919000
   172  H          0.36809000       0.73767700       0.50081000
   173  C          0.22403000       0.27284000       0.56274000
   174  C          0.77597000       0.72716000       0.43726000
   175  H          0.16591000       0.29222300       0.54364300
   176  H          0.83409000       0.70777700       0.45635700
   177  H          0.24375200       0.31310500       0.63336200
   178  H          0.75624800       0.68689500       0.36663800
   179  C          0.19724000       0.15624000       0.53464000
   180  C          0.80276000       0.84376000       0.46536000
   181  H          0.14407800       0.14088400       0.56629400
   182  H          0.85592200       0.85911600       0.43370600
   183  H          0.17625300       0.11591200       0.46482300
   184  H          0.82374700       0.88408800       0.53517700
   185  H          0.25409900       0.13679500       0.55454500
   186  H          0.74590100       0.86320500       0.44545500
   187  I          0.02126300       0.17143300       0.09776200
   188  I          0.97873700       0.82856700       0.90223800
   189  I          0.29521300       0.22571400       0.83707700
   190  I          0.70478700       0.77428600       0.16292300
   191  F          0.21012000       0.23473000       0.01952000
   192  F          0.78988000       0.76527000       0.98048000
   193  F          0.09573000       0.07203000       0.68627000
   194  F          0.90427000       0.92797000       0.31373000
   195  F          0.91877000      -0.00153000       0.71247000
   196  F          0.08123000       0.00153000       0.28753000
   197  F          0.88458000       0.04083000       0.88917000
   198  F          0.11542000       0.95917000       0.11083000
   199  C          0.04804000       0.13614000       0.95786000
   200  C          0.95196000       0.86386000       0.04214000
   201  C          0.13754000       0.17384000       0.94246000
   202  C          0.86246000       0.82616000       0.05754000
   203  C          0.15864000       0.15565000       0.85236000
   204  C          0.84136000       0.84435000       0.14764000
   205  C          0.08215000       0.09355000       0.77586000
   206  C          0.91785000       0.90645000       0.22414000
   207  C         -0.00795000       0.05474000       0.78746000
   208  C          0.00795000       0.94526000       0.21254000
   209  C          0.97486000       0.07704000       0.87896000
   210  C          0.02514000       0.92296000       0.12104000
   211  I          0.85733700       0.39570300       0.16638300
   212  I          0.14266300       0.60429700       0.83361700
   213  I          0.25299300       0.50652300       0.07003300
   214  I          0.74700700       0.49347700       0.92996700
   215  F          0.08052000       0.49083000       0.18283000
   216  F          0.91948000       0.50917000       0.81717000
   217  F          0.11553000       0.36763000       0.85997000
   218  F          0.88447000       0.63237000       0.14003000
   219  F          0.92717000       0.26473000       0.80367000
   220  F          0.07283000       0.73527000       0.19633000
   221  F          0.81387000       0.26933000       0.93447000
   222  F          0.18613000       0.73067000       0.06553000
   223  C          0.94446000       0.38284000       0.06264000
   224  C          0.05554000       0.61716000       0.93736000
   225  C          0.04314000       0.43414000       0.08884000
   226  C          0.95686000       0.56586000       0.91116000
   227  C          0.10284000       0.43055000       0.02335000
   228  C          0.89716000       0.56945000       0.97665000
   229  C          0.06205000       0.37385000       0.92765000
   230  C          0.93795000       0.62615000       0.07235000
   231  C          0.96455000       0.32025000       0.89846000
   232  C          0.03545000       0.67975000       0.10154000
   233  C          0.90826000       0.32464000       0.96576000
   234  C          0.09174000       0.67536000       0.03424000
   235  O          0.48804000       0.10593000       0.34304000
   236  O          0.51196000       0.89407000       0.65696000
   237  N          0.39365000       0.96465000       0.34265000
   238  N          0.60635000       0.03535000       0.65735000
   239  C          0.41175000       0.05556000       0.34346000
   240  C          0.58825000       0.94444000       0.65654000
   241  H          0.34696500       0.07513000       0.33242300
   242  H          0.65303500       0.92487000       0.66757700
   243  C          0.47299000       0.91582000       0.34079000
   244  C          0.52701000       0.08418000       0.65921000
   245  H          0.52794600       0.95066100       0.32245000
   246  H          0.47205400       0.04933900       0.67755000
   247  H          0.45148400       0.84153200       0.29381500
   248  H          0.54851600       0.15846800       0.70618500
   249  H          0.49318500       0.92226600       0.40446900
   250  H          0.50681500       0.07773400       0.59553100
   251  C          0.29937000       0.90742000       0.33909000
   252  C          0.70063000       0.09258000       0.66091000
   253  H          0.25552600       0.95426500       0.35579700
   254  H          0.74447400       0.04573500       0.64420300
   255  H          0.30313300       0.87866900       0.38467400
   256  H          0.69686700       0.12133100       0.61532600
   257  H          0.27427300       0.85004700       0.27399900
   258  H          0.72572700       0.14995300       0.72600100
