data_IFAKOQ
_symmetry_space_group_name_H-M    'P1'
_symmetry_Int_Tables_number       1
loop_
_symmetry_equiv_pos_site_id
_symmetry_equiv_pos_as_xyz
1 x,y,z
_cell_length_a                   8.66487
_cell_length_b                   13.10891
_cell_length_c                   20.660015
_cell_angle_alpha                90.0
_cell_angle_beta                 90.7313
_cell_angle_gamma                90.0
loop_
_atom_site_label
_atom_site_type_symbol
_atom_site_fract_x
_atom_site_fract_y
_atom_site_fract_z
     1  O          0.11952000       0.52529160       0.42065100
     2  O          0.38048000       0.02529160       0.07934900
     3  O          0.88048000       0.47470840       0.57934900
     4  O          0.61952000       0.97470840       0.92065100
     5  C          0.16793000       0.55322000       0.47337150
     6  C          0.33207000       0.05322000       0.02662850
     7  C          0.83207000       0.44678000       0.52662850
     8  C          0.66793000       0.94678000       0.97337150
     9  C          0.11534000       0.65022000       0.50394150
    10  C          0.38466000       0.15022000      -0.00394150
    11  C          0.88466000       0.34978000       0.49605850
    12  C          0.61534000       0.84978000       0.00394150
    13  H          0.04030000       0.68400000       0.47530000
    14  H          0.45970000       0.18400000       0.02470000
    15  H          0.95970000       0.31600000       0.52470000
    16  H          0.54030000       0.81600000       0.97530000
    17  H          0.20420000       0.69520000       0.51110000
    18  H          0.29580000       0.19520000       0.98890000
    19  H          0.79580000       0.30480000       0.48890000
    20  H          0.70420000       0.80480000       0.01110000
    21  H          0.06690000       0.63500000       0.54550000
    22  H          0.43310000       0.13500000       0.95450000
    23  H          0.93310000       0.36500000       0.45450000
    24  H          0.56690000       0.86500000       0.04550000
    25  C          0.28294000       0.49233000       0.51028150
    26  C          0.21706000      -0.00767000       0.98971850
    27  C          0.71706000       0.50767000       0.48971850
    28  C          0.78294000       0.00767000       0.01028150
    29  H          0.30870000       0.43080000       0.48570000
    30  H          0.19130000       0.93080000       0.01430000
    31  H          0.69130000       0.56920000       0.51430000
    32  H          0.80870000       0.06920000       0.98570000
    33  H          0.23970000       0.47270000       0.55210000
    34  H          0.26030000       0.97270000       0.94790000
    35  H          0.76030000       0.52730000       0.44790000
    36  H          0.73970000       0.02730000       0.05210000
    37  H          0.37640000       0.53300000       0.51750000
    38  H          0.12360000       0.03300000       0.98250000
    39  H          0.62360000       0.46700000       0.48250000
    40  H          0.87640000       0.96700000       0.01750000
    41  C          0.79343000       0.89492000       0.62405130
    42  C          0.70657000       0.39492000       0.87594870
    43  C          0.20657000       0.10508000       0.37594870
    44  C          0.29343000       0.60508000       0.12405130
    45  H          0.75660000       0.83370000       0.64310000
    46  H          0.74340000       0.33370000       0.85690000
    47  H          0.24340000       0.16630000       0.35690000
    48  H          0.25660000       0.66630000       0.14310000
    49  C          0.89053000       0.95622000       0.65803140
    50  C          0.60947000       0.45622000       0.84196860
    51  C          0.10947000       0.04378000       0.34196860
    52  C          0.39053000       0.54378000       0.15803140
    53  H          0.92090000       0.93770000       0.70080000
    54  H          0.57910000       0.43770000       0.79920000
    55  H          0.07910000       0.06230000       0.29920000
    56  H          0.42090000       0.56230000       0.20080000
    57  C          0.94673000       0.04672000       0.63099140
    58  C          0.55327000       0.54672000       0.86900860
    59  C          0.05327000       0.95328000       0.36900860
    60  C          0.44673000       0.45328000       0.13099140
    61  H          0.01500000       0.08890000       0.65540000
    62  H          0.48500000       0.58890000       0.84460000
    63  H         -0.01500000       0.91110000       0.34460000
    64  H          0.51500000       0.41110000       0.15540000
    65  C          0.90383000       0.07472000       0.56954130
    66  C          0.59617000       0.57472000       0.93045870
    67  C          0.09617000       0.92528000       0.43045870
    68  C          0.40383000       0.42528000       0.06954130
    69  H          0.94320000       0.13590000       0.55150000
    70  H          0.55680000       0.63590000       0.94850000
    71  H          0.05680000       0.86410000       0.44850000
    72  H          0.44320000       0.36410000       0.05150000
    73  C          0.80133000       0.01342000       0.53268130
    74  C          0.69867000       0.51342000       0.96731870
    75  C          0.19867000       0.98658000       0.46731870
    76  C          0.30133000       0.48658000       0.03268130
    77  C          0.74613000       0.92122000       0.56012130
    78  C          0.75387000       0.42122000       0.93987870
    79  C          0.25387000       0.07878000       0.43987870
    80  C          0.24613000       0.57878000       0.06012130
    81  C          0.64693000       0.85822000       0.52315130
    82  C          0.85307000       0.35822000       0.97684870
    83  C          0.35307000       0.14178000       0.47684870
    84  C          0.14693000       0.64178000       0.02315130
    85  H          0.60810000       0.79730000       0.54180000
    86  H          0.89190000       0.29730000       0.95820000
    87  H          0.39190000       0.20270000       0.45820000
    88  H          0.10810000       0.70270000       0.04180000
    89  C          0.60543000       0.88274190       0.46100130
    90  C          0.89457000       0.38274190       0.03899870
    91  C          0.39457000       0.11725810       0.53899870
    92  C          0.10543000       0.61725810       0.96100130
    93  C          0.65853000       0.97532000       0.43392120
    94  C          0.84147000       0.47532000       0.06607880
    95  C          0.34147000       0.02468000       0.56607880
    96  C          0.15853000       0.52468000       0.93392120
    97  C          0.75273000       0.03932000       0.46920130
    98  C          0.74727000       0.53932000       0.03079870
    99  C          0.24727000       0.96068000       0.53079870
   100  C          0.25273000       0.46068000       0.96920130
   101  H          0.78560000       0.10190000       0.45070000
   102  H          0.71440000       0.60190000       0.04930000
   103  H          0.21440000       0.89810000       0.54930000
   104  H          0.28560000       0.39810000       0.95070000
   105  C          0.61653000       0.00292000       0.36603130
   106  C          0.88347000       0.50292000       0.13396870
   107  C          0.38347000      -0.00292000       0.63396870
   108  C          0.11653000       0.49708000       0.86603130
   109  C          0.57133000       0.91663180       0.32146120
   110  C          0.92867000       0.41663180       0.17853880
   111  C          0.42867000       0.08336820       0.67853880
   112  C          0.07133000       0.58336820       0.82146120
   113  H          0.66710000       0.87720000       0.31190000
   114  H          0.83290000       0.37720000       0.18810000
   115  H          0.33290000       0.12280000       0.68810000
   116  H          0.16710000       0.62280000       0.81190000
   117  C          0.45923000       0.84367190       0.35531120
   118  C          0.04077000       0.34367190       0.14468880
   119  C          0.54077000       0.15632810       0.64468880
   120  C          0.95923000       0.65632810       0.85531120
   121  H          0.35620000       0.87620000       0.35610000
   122  H          0.14380000       0.37620000       0.14390000
   123  H          0.64380000       0.12380000       0.64390000
   124  H          0.85620000       0.62380000       0.85610000
   125  H          0.44980000       0.78090000       0.32890000
   126  H          0.05020000       0.28090000       0.17110000
   127  H          0.55020000       0.21910000       0.67110000
   128  H          0.94980000       0.71910000       0.82890000
   129  C          0.50303000       0.81352000       0.42336130
   130  C         -0.00303000       0.31352000       0.07663870
   131  C          0.49697000       0.18648000       0.57663870
   132  C          0.00303000       0.68648000       0.92336130
   133  C          0.50413000       0.95433180       0.25651120
   134  C         -0.00413000       0.45433180       0.24348880
   135  C          0.49587000       0.04566820       0.74348880
   136  C          0.00413000       0.54566820       0.75651120
   137  H          0.40770000      -0.00660000       0.26580000
   138  H          0.09230000       0.49340000       0.23420000
   139  H          0.59230000       0.00660000       0.73420000
   140  H          0.90770000       0.50660000       0.76580000
   141  C          0.60983000       0.02321190       0.21862120
   142  C          0.89017000       0.52321190       0.28137880
   143  C          0.39017000       0.97678810       0.78137880
   144  C          0.10983000       0.47678810       0.71862120
   145  C          0.75683000       0.98091190       0.19748120
   146  C          0.74317000       0.48091190       0.30251880
   147  C          0.24317000       0.01908810       0.80251880
   148  C          0.25683000       0.51908810       0.69748120
   149  C          0.77213000       0.87579190       0.18420120
   150  C          0.72787000       0.37579190       0.31579880
   151  C          0.22787000       0.12420810       0.81579880
   152  C          0.27213000       0.62420810       0.68420120
   153  C          0.46163000       0.86742190       0.20956120
   154  C          0.03837000       0.36742190       0.29043880
   155  C          0.53837000       0.13257810       0.79043880
   156  C          0.96163000       0.63257810       0.70956120
   157  H          0.42200000       0.89710000       0.16850000
   158  H          0.07800000       0.39710000       0.33150000
   159  H          0.57800000       0.10290000       0.83150000
   160  H          0.92200000       0.60290000       0.66850000
   161  H          0.37790000       0.82610000       0.22850000
   162  H          0.12210000       0.32610000       0.27150000
   163  H          0.62210000       0.17390000       0.77150000
   164  H          0.87790000       0.67390000       0.72850000
   165  C          0.55803000       0.11622190       0.19899120
   166  C          0.94197000       0.61622190       0.30100880
   167  C          0.44197000       0.88377810       0.80100880
   168  C          0.05803000       0.38377810       0.69899120
   169  C          0.41164000       0.15698190       0.21910130
   170  C          0.08836000       0.65698190       0.28089870
   171  C          0.58836000       0.84301810       0.78089870
   172  C          0.91164000       0.34301810       0.71910130
   173  C          0.63353000       0.18162000       0.15370140
   174  C          0.86647000       0.68162000       0.34629860
   175  C          0.36647000       0.81838000       0.84629860
   176  C          0.13353000       0.31838000       0.65370140
   177  C          0.88633000       0.04332000       0.18909120
   178  C          0.61367000       0.54332000       0.31090880
   179  C          0.11367000       0.95668000       0.81090880
   180  C          0.38633000       0.45668000       0.68909120
   181  H          0.87870000       0.11390000       0.19890000
   182  H          0.62130000       0.61390000       0.30110000
   183  H          0.12130000       0.88610000       0.80110000
   184  H          0.37870000       0.38610000       0.69890000
   185  C          0.02483000       0.00542000       0.16692120
   186  C          0.47517000       0.50542000       0.33307880
   187  C          0.97517000      -0.00542000       0.83307880
   188  C          0.52483000       0.49458000       0.66692120
   189  H          0.11050000       0.04950000       0.16080000
   190  H          0.38950000       0.54950000       0.33920000
   191  H          0.88950000       0.95050000       0.83920000
   192  H          0.61050000       0.45050000       0.66080000
   193  C          0.03673000       0.90272000       0.15379130
   194  C          0.46327000       0.40272000       0.34620870
   195  C          0.96327000       0.09728000       0.84620870
   196  C          0.53673000       0.59728000       0.65379130
   197  H          0.13150000       0.87600000       0.13860000
   198  H          0.36850000       0.37600000       0.36140000
   199  H          0.86850000       0.12400000       0.86140000
   200  H          0.63150000       0.62400000       0.63860000
   201  C          0.91343000       0.83832000       0.16237130
   202  C          0.58657000       0.33832000       0.33762870
   203  C          0.08657000       0.16168000       0.83762870
   204  C          0.41343000       0.66168000       0.66237130
   205  H          0.92430000       0.76760000       0.15340000
   206  H          0.57570000       0.26760000       0.34660000
   207  H          0.07570000       0.23240000       0.84660000
   208  H          0.42430000       0.73240000       0.65340000
   209  N          0.29583000       0.19187170       0.23308110
   210  N          0.20417000       0.69187170       0.26691890
   211  N          0.70417000       0.80812830       0.76691890
   212  N          0.79583000       0.30812830       0.73308110
   213  N          0.68573000       0.23824180       0.11778120
   214  N          0.81427000       0.73824180       0.38221880
   215  N          0.31427000       0.76175820       0.88221880
   216  N          0.18573000       0.26175820       0.61778120
   217  O          0.62312000       0.09124140       0.34711900
   218  O          0.87688000       0.59124140       0.15288100
   219  O          0.37688000       0.90875860       0.65288100
   220  O          0.12312000       0.40875860       0.84711900
   221  O          0.45252000       0.73484140       0.44670800
   222  O          0.04748000       0.23484140       0.05329200
   223  O          0.54748000       0.26515860       0.55329200
   224  O          0.95252000       0.76515860       0.94670800
   225  S          0.62329800       0.78536500       0.19231300
   226  S          0.87670200       0.28536500       0.30768700
   227  S          0.37670200       0.21463500       0.80768700
   228  S          0.12329800       0.71463500       0.69231300
