data_IFICUX
_symmetry_space_group_name_H-M    'P1'
_symmetry_Int_Tables_number       1
loop_
_symmetry_equiv_pos_site_id
_symmetry_equiv_pos_as_xyz
1 x,y,z
_cell_length_a                   20.170413
_cell_length_b                   7.98705
_cell_length_c                   18.075311
_cell_angle_alpha                90.0
_cell_angle_beta                 93.6423
_cell_angle_gamma                90.0
loop_
_atom_site_label
_atom_site_type_symbol
_atom_site_fract_x
_atom_site_fract_y
_atom_site_fract_z
     1  B          0.25107900       0.38362000       0.58748900
     2  B          0.74892100       0.88362000       0.91251100
     3  B          0.74892100       0.61638000       0.41251100
     4  B          0.25107900       0.11638000       0.08748900
     5  B          0.21558900       0.45732000       0.50533100
     6  B          0.78441100       0.95732000      -0.00533100
     7  B          0.78441100       0.54268000       0.49466900
     8  B          0.21558900       0.04268000       0.00533100
     9  I          0.27048050       0.67113812       0.45607750
    10  I          0.72951950       0.17113812       0.04392250
    11  I          0.72951950       0.32886188       0.54392250
    12  I          0.27048050       0.82886188       0.95607750
    13  I          0.16399350       0.56456512       0.62387850
    14  I          0.83600650       0.06456512       0.87612150
    15  I          0.83600650       0.43543488       0.37612150
    16  I          0.16399350       0.93543488       0.12387850
    17  P          0.22095319       0.16310500       0.62420200
    18  P          0.77904681       0.66310500       0.87579800
    19  P          0.77904681       0.83689500       0.37579800
    20  P          0.22095319       0.33689500       0.12420200
    21  C          0.28431800       0.00192000       0.61687800
    22  C          0.71568200       0.50192000       0.88312200
    23  C          0.71568200      -0.00192000       0.38312200
    24  C          0.28431800       0.49808000       0.11687800
    25  H          0.26300000       0.89100000       0.62120000
    26  H          0.73700000       0.39100000       0.87880000
    27  H          0.73700000       0.10900000       0.37880000
    28  H          0.26300000       0.60900000       0.12120000
    29  H          0.30150000       0.00860000       0.56680000
    30  H          0.69850000       0.50860000       0.93320000
    31  H          0.69850000      -0.00860000       0.43320000
    32  H          0.30150000       0.49140000       0.06680000
    33  C          0.34316800       0.01182000       0.67421100
    34  C          0.65683200       0.51182000       0.82578900
    35  C          0.65683200      -0.01182000       0.32578900
    36  C          0.34316800       0.48818000       0.17421100
    37  H          0.36650000       0.11830000       0.66870000
    38  H          0.63350000       0.61830000       0.83130000
    39  H          0.63350000       0.88170000       0.33130000
    40  H          0.36650000       0.38170000       0.16870000
    41  H          0.37370000       0.91890000       0.66650000
    42  H          0.62630000       0.41890000       0.83350000
    43  H          0.62630000       0.08110000       0.33350000
    44  H          0.37370000       0.58110000       0.16650000
    45  H          0.32710000       0.00460000       0.72410000
    46  H          0.67290000       0.50460000       0.77590000
    47  H          0.67290000      -0.00460000       0.27590000
    48  H          0.32710000       0.49540000       0.22410000
    49  C          0.20425800       0.16364190       0.72212800
    50  C          0.79574200       0.66364190       0.77787200
    51  C          0.79574200       0.83635810       0.27787200
    52  C          0.20425800       0.33635810       0.22212800
    53  H          0.24530000       0.19680000       0.75140000
    54  H          0.75470000       0.69680000       0.74860000
    55  H          0.75470000       0.80320000       0.24860000
    56  H          0.24530000       0.30320000       0.25140000
    57  H          0.17010000       0.24950000       0.73030000
    58  H          0.82990000       0.74950000       0.76970000
    59  H          0.82990000       0.75050000       0.26970000
    60  H          0.17010000       0.25050000       0.23030000
    61  C          0.18051800      -0.00442000       0.75135900
    62  C          0.81948200       0.49558000       0.74864100
    63  C          0.81948200       0.00442000       0.24864100
    64  C          0.18051800       0.50442000       0.25135900
    65  H          0.13670000       0.96900000       0.72770000
    66  H          0.86330000       0.46900000       0.77230000
    67  H          0.86330000       0.03100000       0.27230000
    68  H          0.13670000       0.53100000       0.22770000
    69  H          0.17740000       0.00270000       0.80520000
    70  H          0.82260000       0.50270000       0.69480000
    71  H          0.82260000      -0.00270000       0.19480000
    72  H          0.17740000       0.49730000       0.30520000
    73  H          0.21220000       0.90770000       0.73990000
    74  H          0.78780000       0.40770000       0.76010000
    75  H          0.78780000       0.09230000       0.26010000
    76  H          0.21220000       0.59230000       0.23990000
    77  C          0.14794800       0.06547190       0.57712900
    78  C          0.85205200       0.56547190       0.92287100
    79  C          0.85205200       0.93452810       0.42287100
    80  C          0.14794800       0.43452810       0.07712900
    81  H          0.15610000       0.05610000       0.52380000
    82  H          0.84390000       0.55610000       0.97620000
    83  H          0.84390000       0.94390000       0.47620000
    84  H          0.15610000       0.44390000       0.02380000
    85  H          0.14440000       0.95020000       0.59660000
    86  H          0.85560000       0.45020000       0.90340000
    87  H          0.85560000       0.04980000       0.40340000
    88  H          0.14440000       0.54980000       0.09660000
    89  C          0.08084800       0.15122000       0.58316100
    90  C          0.91915200       0.65122000       0.91683900
    91  C          0.91915200       0.84878000       0.41683900
    92  C          0.08084800       0.34878000       0.08316100
    93  H          0.07390000       0.17360000       0.63540000
    94  H          0.92610000       0.67360000       0.86460000
    95  H          0.92610000       0.82640000       0.36460000
    96  H          0.07390000       0.32640000       0.13540000
    97  H          0.04540000       0.07790000       0.56230000
    98  H          0.95460000       0.57790000       0.93770000
    99  H          0.95460000       0.92210000       0.43770000
   100  H          0.04540000       0.42210000       0.06230000
   101  H          0.08020000       0.25690000       0.55560000
   102  H          0.91980000       0.75690000       0.94440000
   103  H          0.91980000       0.74310000       0.44440000
   104  H          0.08020000       0.24310000       0.05560000
   105  C          0.32469800       0.43440180       0.62146800
   106  C          0.67530200       0.93440180       0.87853200
   107  C          0.67530200       0.56559820       0.37853200
   108  C          0.32469800       0.06559820       0.12146800
   109  C          0.34116800       0.50952000       0.69142900
   110  C          0.65883200       0.00952000       0.80857100
   111  C          0.65883200       0.49048000       0.30857100
   112  C          0.34116800      -0.00952000       0.19142900
   113  C          0.40709900       0.55542000       0.71163900
   114  C          0.59290100       0.05542000       0.78836100
   115  C          0.59290100       0.44458000       0.28836100
   116  C          0.40709900       0.94458000       0.21163900
   117  H          0.41650000       0.60800000       0.75830000
   118  H          0.58350000       0.10800000       0.74170000
   119  H          0.58350000       0.39200000       0.24170000
   120  H          0.41650000       0.89200000       0.25830000
   121  C          0.45876900       0.52732000       0.66671100
   122  C          0.54123100       0.02732000       0.83328900
   123  C          0.54123100       0.47268000       0.33328900
   124  C          0.45876900       0.97268000       0.16671100
   125  C          0.44351800       0.44852000       0.59983100
   126  C          0.55648200       0.94852000       0.90016900
   127  C          0.55648200       0.55148000       0.40016900
   128  C          0.44351800       0.05148000       0.09983100
   129  H          0.47830000       0.42570000       0.56830000
   130  H          0.52170000       0.92570000       0.93170000
   131  H          0.52170000       0.57430000       0.43170000
   132  H          0.47830000       0.07430000       0.06830000
   133  C          0.37901800       0.40102000       0.57682900
   134  C          0.62098200       0.90102000       0.92317100
   135  C          0.62098200       0.59898000       0.42317100
   136  C          0.37901800       0.09898000       0.07682900
   137  C          0.29341900       0.54782000       0.75028900
   138  C          0.70658100       0.04782000       0.74971100
   139  C          0.70658100       0.45218000       0.24971100
   140  C          0.29341900       0.95218000       0.25028900
   141  H          0.31660000       0.53840000       0.79940000
   142  H          0.68340000       0.03840000       0.70060000
   143  H          0.68340000       0.46160000       0.20060000
   144  H          0.31660000       0.96160000       0.29940000
   145  H          0.25640000       0.46800000       0.74630000
   146  H          0.74360000       0.96800000       0.75370000
   147  H          0.74360000       0.53200000       0.25370000
   148  H          0.25640000       0.03200000       0.24630000
   149  H          0.27620000       0.66180000       0.74330000
   150  H          0.72380000       0.16180000       0.75670000
   151  H          0.72380000       0.33820000       0.25670000
   152  H          0.27620000       0.83820000       0.24330000
   153  C          0.52939100       0.57643000       0.69060120
   154  C          0.47060900       0.07643000       0.80939880
   155  C          0.47060900       0.42357000       0.30939880
   156  C          0.52939100       0.92357000       0.19060120
   157  H          0.55530000       0.47560000       0.70350000
   158  H          0.44470000       0.97560000       0.79650000
   159  H          0.44470000       0.52440000       0.29650000
   160  H          0.55530000       0.02440000       0.20350000
   161  H          0.52930000       0.65030000       0.73390000
   162  H          0.47070000       0.15030000       0.76610000
   163  H          0.47070000       0.34970000       0.26610000
   164  H          0.52930000       0.84970000       0.23390000
   165  H          0.54930000       0.63510000       0.64990000
   166  H          0.45070000       0.13510000       0.85010000
   167  H          0.45070000       0.36490000       0.35010000
   168  H          0.54930000       0.86490000       0.14990000
   169  C          0.37176800       0.30612000       0.50474900
   170  C          0.62823200       0.80612000      -0.00474900
   171  C          0.62823200       0.69388000       0.49525100
   172  C          0.37176800       0.19388000       0.00474900
   173  H          0.41100000       0.32520000       0.47660000
   174  H          0.58900000       0.82520000       0.02340000
   175  H          0.58900000       0.67480000       0.52340000
   176  H          0.41100000       0.17480000       0.97660000
   177  H          0.33200000       0.34510000       0.47580000
   178  H          0.66800000       0.84510000       0.02420000
   179  H          0.66800000       0.65490000       0.52420000
   180  H          0.33200000       0.15490000       0.97580000
   181  H          0.36750000       0.18620000       0.51500000
   182  H          0.63250000       0.68620000       0.98500000
   183  H          0.63250000       0.81380000       0.48500000
   184  H          0.36750000       0.31380000       0.01500000
   185  C          0.15651800       0.39696190       0.44878800
   186  C          0.84348200       0.89696190       0.05121200
   187  C          0.84348200       0.60303810       0.55121200
   188  C          0.15651800       0.10303810       0.94878800
   189  C          0.16362800       0.24232000       0.41118800
   190  C          0.83637200       0.74232000       0.08881200
   191  C          0.83637200       0.75768000       0.58881200
   192  C          0.16362800       0.25768000       0.91118800
   193  C          0.11220800       0.17872000       0.36429900
   194  C          0.88779200       0.67872000       0.13570100
   195  C          0.88779200       0.82128000       0.63570100
   196  C          0.11220800       0.32128000       0.86429900
   197  H          0.11780000       0.07330000       0.34120000
   198  H          0.88220000       0.57330000       0.15880000
   199  H          0.88220000       0.92670000       0.65880000
   200  H          0.11780000       0.42670000       0.84120000
   201  C          0.05301800       0.26512000       0.35028900
   202  C          0.94698200       0.76512000       0.14971100
   203  C          0.94698200       0.73488000       0.64971100
   204  C          0.05301800       0.23488000       0.85028900
   205  C          0.04746800       0.42062000       0.38302900
   206  C          0.95253200       0.92062000       0.11697100
   207  C          0.95253200       0.57938000       0.61697100
   208  C          0.04746800       0.07938000       0.88302900
   209  H          0.00790000       0.48330000       0.37270000
   210  H          0.99210000      -0.01670000       0.12730000
   211  H          0.99210000       0.51670000       0.62730000
   212  H          0.00790000       0.01670000       0.87270000
   213  C          0.09757800       0.48932000       0.43061800
   214  C          0.90242200      -0.01068000       0.06938200
   215  C          0.90242200       0.51068000       0.56938200
   216  C          0.09757800       0.01068000       0.93061800
   217  C          0.22842900       0.14842000       0.41528900
   218  C          0.77157100       0.64842000       0.08471100
   219  C          0.77157100       0.85158000       0.58471100
   220  C          0.22842900       0.35158000       0.91528900
   221  H          0.22100000       0.03430000       0.39670000
   222  H          0.77900000       0.53430000       0.10330000
   223  H          0.77900000       0.96570000       0.60330000
   224  H          0.22100000       0.46570000       0.89670000
   225  H          0.24650000       0.14410000       0.46690000
   226  H          0.75350000       0.64410000       0.03310000
   227  H          0.75350000       0.85590000       0.53310000
   228  H          0.24650000       0.35590000       0.96690000
   229  H          0.26000000       0.20570000       0.38500000
   230  H          0.74000000       0.70570000       0.11500000
   231  H          0.74000000       0.79430000       0.61500000
   232  H          0.26000000       0.29430000       0.88500000
   233  C         -0.00219100       0.19503000       0.29905110
   234  C          0.00219100       0.69503000       0.20094890
   235  C          0.00219100       0.80497000       0.70094890
   236  C         -0.00219100       0.30497000       0.79905110
   237  H          0.98550000       0.27720000       0.26030000
   238  H          0.01450000       0.77720000       0.23970000
   239  H          0.01450000       0.72280000       0.73970000
   240  H          0.98550000       0.22280000       0.76030000
   241  H          0.95920000       0.17040000       0.32740000
   242  H          0.04080000       0.67040000       0.17260000
   243  H          0.04080000       0.82960000       0.67260000
   244  H          0.95920000       0.32960000       0.82740000
   245  H          0.01300000       0.09180000       0.27610000
   246  H          0.98700000       0.59180000       0.22390000
   247  H          0.98700000       0.90820000       0.72390000
   248  H          0.01300000       0.40820000       0.77610000
   249  C          0.08500900       0.66592000       0.45697100
   250  C          0.91499100       0.16592000       0.04302900
   251  C          0.91499100       0.33408000       0.54302900
   252  C          0.08500900       0.83408000       0.95697100
   253  H          0.06210000       0.72990000       0.41680000
   254  H          0.93790000       0.22990000       0.08320000
   255  H          0.93790000       0.27010000       0.58320000
   256  H          0.06210000       0.77010000       0.91680000
   257  H          0.12750000       0.71980000       0.47160000
   258  H          0.87250000       0.21980000       0.02840000
   259  H          0.87250000       0.28020000       0.52840000
   260  H          0.12750000       0.78020000       0.97160000
   261  H          0.05730000       0.66200000       0.49950000
   262  H          0.94270000       0.16200000       0.00050000
   263  H          0.94270000       0.33800000       0.50050000
   264  H          0.05730000       0.83800000      -0.00050000
   265  C          0.50063100       0.02533000       0.42436110
   266  C          0.49936900       0.52533000       0.07563890
   267  C          0.49936900       0.97467000       0.57563890
   268  C          0.50063100       0.47467000       0.92436110
   269  H          0.50110000       0.04250000       0.37240000
   270  H          0.49890000       0.54250000       0.12760000
   271  H          0.49890000       0.95750000       0.62760000
   272  H          0.50110000       0.45750000       0.87240000
   273  C          0.45689900       0.91142000       0.45207110
   274  C          0.54310100       0.41142000       0.04792890
   275  C          0.54310100       0.08858000       0.54792890
   276  C          0.45689900       0.58858000       0.95207110
   277  H          0.42720000       0.85070000       0.41910000
   278  H          0.57280000       0.35070000       0.08090000
   279  H          0.57280000       0.14930000       0.58090000
   280  H          0.42720000       0.64930000       0.91910000
   281  C          0.45632900       0.88582000       0.52762110
   282  C          0.54367100       0.38582000       0.97237890
   283  C          0.54367100       0.11418000       0.47237890
   284  C          0.45632900       0.61418000       0.02762110
   285  H          0.42640000       0.80730000       0.54660000
   286  H          0.57360000       0.30730000       0.95340000
   287  H          0.57360000       0.19270000       0.45340000
   288  H          0.42640000       0.69270000       0.04660000
