data_IFIFEK
_symmetry_space_group_name_H-M    'P1'
_symmetry_Int_Tables_number       1
loop_
_symmetry_equiv_pos_site_id
_symmetry_equiv_pos_as_xyz
1 x,y,z
_cell_length_a                   8.79924
_cell_length_b                   9.51484
_cell_length_c                   18.53258
_cell_angle_alpha                85.9402
_cell_angle_beta                 83.8832
_cell_angle_gamma                73.3092
loop_
_atom_site_label
_atom_site_type_symbol
_atom_site_fract_x
_atom_site_fract_y
_atom_site_fract_z
     1  Br         0.72269300       0.76791200       0.20049213
     2  Br         0.27730700       0.23208800       0.79950787
     3  B          0.31753000       0.39853000       0.35786140
     4  B          0.68247000       0.60147000       0.64213860
     5  Br         0.33028300       0.30145200       0.45697813
     6  Br         0.66971700       0.69854800       0.54302187
     7  N          0.39292000       0.50602000       0.34377110
     8  N          0.60708000       0.49398000       0.65622890
     9  C          0.50043000       0.54223000       0.39059160
    10  C          0.49957000       0.45777000       0.60940840
    11  H          0.43980000       0.62230000       0.42160000
    12  H          0.56020000       0.37770000       0.57840000
    13  H          0.58450000       0.57270000       0.36030000
    14  H          0.41550000       0.42730000       0.63970000
    15  H          0.54840000       0.45550000       0.42100000
    16  H          0.45160000       0.54450000       0.57900000
    17  C          0.36073000       0.61032000       0.28207110
    18  C          0.63927000       0.38968000       0.71792890
    19  H          0.29660000       0.57860000       0.24990000
    20  H          0.70340000       0.42140000       0.75010000
    21  H          0.46160000       0.61480000       0.25540000
    22  H          0.53840000       0.38520000       0.74460000
    23  H          0.30220000       0.70770000       0.29950000
    24  H          0.69780000       0.29230000       0.70050000
    25  B          0.19303000       0.34882000       0.30626130
    26  B          0.80697000       0.65118000       0.69373870
    27  N          0.03272000       0.42103180       0.31405100
    28  N          0.96728000       0.57896820       0.68594900
    29  C          0.90667000       0.38472000       0.28014120
    30  C          0.09333000       0.61528000       0.71985880
    31  H          0.95450000       0.30660000       0.24600000
    32  H          0.04550000       0.69340000       0.75400000
    33  H          0.84490000       0.47200000       0.25400000
    34  H          0.15510000       0.52800000       0.74600000
    35  H          0.83630000       0.35120000       0.31770000
    36  H          0.16370000       0.64880000       0.68230000
    37  C          0.96617000       0.54822000       0.35943130
    38  C          0.03383000       0.45178000       0.64056870
    39  H          0.05220000       0.57040000       0.38180000
    40  H          0.94780000       0.42960000       0.61820000
    41  H          0.88910000       0.52620000       0.39750000
    42  H          0.11090000       0.47380000       0.60250000
    43  H          0.91280000       0.63330000       0.32930000
    44  H          0.08720000       0.36670000       0.67070000
    45  C          0.25132000       0.21862000       0.24927110
    46  C          0.74868000       0.78138000       0.75072890
    47  N          0.31802000       0.23565180       0.18285100
    48  N          0.68198000       0.76434820       0.81714900
    49  C          0.35883000       0.10022000       0.14142120
    50  C          0.64117000       0.89978000       0.85857880
    51  H          0.47440000       0.06690000       0.12620000
    52  H          0.52560000       0.93310000       0.87380000
    53  H          0.29870000       0.11540000       0.09800000
    54  H          0.70130000       0.88460000       0.90200000
    55  C          0.30883000      -0.00912000       0.19643120
    56  C          0.69117000       0.00912000       0.80356880
    57  H          0.22930000       0.95080000       0.17770000
    58  H          0.77070000       0.04920000       0.82230000
    59  H          0.40180000       0.90890000       0.20890000
    60  H          0.59820000       0.09110000       0.79110000
    61  N          0.23852000       0.08201180       0.25999900
    62  N          0.76148000       0.91798820       0.74000100
    63  C          0.35373000       0.36612000       0.14967110
    64  C          0.64627000       0.63388000       0.85032890
    65  C          0.50813000       0.37722000       0.15125120
    66  C          0.49187000       0.62278000       0.84874880
    67  C          0.54583000       0.49812000       0.11605120
    68  C          0.45417000       0.50188000       0.88394880
    69  H          0.65050000       0.50710000       0.11640000
    70  H          0.34950000       0.49290000       0.88360000
    71  C          0.43353000       0.60662000       0.08030120
    72  C          0.56647000       0.39338000       0.91969880
    73  C          0.28203000       0.59172000       0.07968120
    74  C          0.71797000       0.40828000       0.92031880
    75  H          0.20490000       0.66590000       0.05560000
    76  H          0.79510000       0.33410000       0.94440000
    77  C          0.23833000       0.47092000       0.11340120
    78  C          0.76167000       0.52908000       0.88659880
    79  C          0.62943000       0.26542000       0.19299140
    80  C          0.37057000       0.73458000       0.80700860
    81  H          0.60220000       0.27880000       0.24520000
    82  H          0.39780000       0.72120000       0.75480000
    83  H          0.73540000       0.27840000       0.17920000
    84  H          0.26460000       0.72160000       0.82080000
    85  H          0.62950000       0.16630000       0.18170000
    86  H          0.37050000       0.83370000       0.81830000
    87  C          0.47773000       0.73733000       0.04255140
    88  C          0.52227000       0.26267000       0.95744860
    89  H          0.53840000       0.77500000       0.07410000
    90  H          0.46160000       0.22500000       0.92590000
    91  H          0.38060000       0.81440000       0.03210000
    92  H          0.61940000       0.18560000       0.96790000
    93  H          0.54280000       0.70740000      -0.00300000
    94  H          0.45720000       0.29260000       0.00300000
    95  C          0.07403000       0.45793000       0.10745130
    96  C          0.92597000       0.54207000       0.89254870
    97  H          0.06640000       0.36240000       0.12840000
    98  H          0.93360000       0.63760000       0.87160000
    99  H          0.05300000       0.46640000       0.05620000
   100  H          0.94700000       0.53360000       0.94380000
   101  H         -0.00460000       0.53650000       0.13390000
   102  H          0.00460000       0.46350000       0.86610000
   103  C          0.20042000       0.01232000       0.32829120
   104  C          0.79958000      -0.01232000       0.67170880
   105  C          0.05803000       0.97368000       0.33994120
   106  C          0.94197000       0.02632000       0.66005880
   107  C          0.03073000       0.89648000       0.40411130
   108  C          0.96927000       0.10352000       0.59588870
   109  H          0.93420000       0.86950000       0.41290000
   110  H          0.06580000       0.13050000       0.58710000
   111  C          0.14043000       0.85748000       0.45572120
   112  C          0.85957000       0.14252000       0.54427880
   113  C          0.28113000       0.89728000       0.44206120
   114  C          0.71887000       0.10272000       0.55793880
   115  H          0.35530000       0.87370000       0.47780000
   116  H          0.64470000       0.12630000       0.52220000
   117  C          0.31693000       0.97038000       0.37787120
   118  C          0.68307000       0.02962000       0.62212880
   119  C          0.93647000       0.00702000       0.28491130
   120  C          0.06353000      -0.00702000       0.71508870
   121  H          0.97250000       0.06110000       0.24270000
   122  H          0.02750000       0.93890000       0.75730000
   123  H          0.83410000       0.06660000       0.30680000
   124  H          0.16590000       0.93340000       0.69320000
   125  H          0.92410000       0.91480000       0.26940000
   126  H          0.07590000       0.08520000       0.73060000
   127  C          0.11213000       0.76607000       0.52293140
   128  C          0.88787000       0.23393000       0.47706860
   129  H         -0.00190000       0.79340000       0.53910000
   130  H          0.00190000       0.20660000       0.46090000
   131  H          0.17160000       0.78370000       0.56150000
   132  H          0.82840000       0.21630000       0.43850000
   133  H          0.14810000       0.66190000       0.51190000
   134  H          0.85190000       0.33810000       0.48810000
   135  C          0.48143000      -0.01082000       0.36002130
   136  C          0.51857000       0.01082000       0.63997870
   137  H          0.54180000       0.91710000       0.32470000
   138  H          0.45820000       0.08290000       0.67530000
   139  H          0.53650000       0.97410000       0.40440000
   140  H          0.46350000       0.02590000       0.59560000
   141  H          0.47290000       0.08850000       0.33930000
   142  H          0.52710000       0.91150000       0.66070000
   143  C          0.00773000       0.90623000       0.94569850
   144  C         -0.00773000       0.09377000       0.05430150
   145  H          0.01320000       0.84130000       0.90820000
   146  H          0.98680000       0.15870000       0.09180000
   147  C          0.92853000       0.88753000       0.01268150
   148  C          0.07147000       0.11247000       0.98731850
   149  H          0.87950000       0.81020000       0.02100000
   150  H          0.12050000       0.18980000       0.97900000
   151  C          0.92083000       0.98103000       0.06717140
   152  C          0.07917000       0.01897000       0.93282860
   153  H          0.86690000       0.96830000       0.11330000
   154  H          0.13310000       0.03170000       0.88670000
