data_IFIMAL
_symmetry_space_group_name_H-M    'P1'
_symmetry_Int_Tables_number       1
loop_
_symmetry_equiv_pos_site_id
_symmetry_equiv_pos_as_xyz
1 x,y,z
_cell_length_a                   6.7164
_cell_length_b                   9.4464
_cell_length_c                   10.0494
_cell_angle_alpha                91.753
_cell_angle_beta                 96.323
_cell_angle_gamma                110.573
loop_
_atom_site_label
_atom_site_type_symbol
_atom_site_fract_x
_atom_site_fract_y
_atom_site_fract_z
     1  O          0.62241180       0.77223140       0.08517110
     2  O          0.37758820       0.22776860       0.91482890
     3  O          0.96371840       0.86651120       0.79959110
     4  O          0.03628160       0.13348880       0.20040890
     5  C          0.47152000       0.78592150       0.01400140
     6  C          0.52848000       0.21407850      -0.01400140
     7  C          0.45042000       0.75987150       0.86347130
     8  C          0.54958000       0.24012850       0.13652870
     9  C          0.42342000       0.59160160       0.82656140
    10  C          0.57658000       0.40839840       0.17343860
    11  C          0.19752000       0.49238160       0.84155150
    12  C          0.80248000       0.50761840       0.15844850
    13  C          0.28493000       0.62422000       0.59135150
    14  C          0.71507000       0.37578000       0.40864850
    15  C          0.04702000       0.52520160       0.76570150
    16  C          0.95298000       0.47479840       0.23429850
    17  C          0.45532000       0.57994190       0.67778160
    18  C          0.54468000       0.42005810       0.32221840
    19  C          0.13272000       0.65724170       0.68209140
    20  C          0.86728000       0.34275830       0.31790860
    21  C          0.26792000       0.79689150       0.78074130
    22  C          0.73208000       0.20310850       0.21925870
    23  C          0.11562000       0.84164150       0.85889140
    24  C          0.88438000       0.15835850       0.14110860
    25  C          0.15002000       0.85581160       0.00623150
    26  C          0.84998000       0.14418840      -0.00623150
    27  C          0.31072000       0.82884160       0.07709150
    28  C          0.68928000       0.17115840       0.92290850
    29  H          0.58830000       0.82301800       0.84141600
    30  H          0.41170000       0.17698200       0.15858400
    31  H          0.52730000       0.56411900       0.88471700
    32  H          0.47270000       0.43588100       0.11528300
    33  H          0.16930000       0.41320000       0.90051800
    34  H          0.83070000       0.58680000       0.09948200
    35  H          0.89170000       0.46920000       0.76501800
    36  H          0.10830000       0.53080000       0.23498200
    37  H          0.02230000       0.68361800       0.62881700
    38  H         -0.02230000       0.31638200       0.37118300
    39  H          0.33220000       0.88241800       0.73001600
    40  H          0.66780000       0.11758200       0.26998400
    41  H          0.04430000       0.88120000       0.04920000
    42  H          0.95570000       0.11880000       0.95080000
    43  H          0.33130000       0.83820000       0.17320000
    44  H          0.66870000       0.16180000       0.82680000
    45  H          0.60130000       0.64620000       0.66691900
    46  H          0.39870000       0.35380000       0.33308100
    47  H          0.44030000       0.47520000       0.65411900
    48  H          0.55970000       0.52480000       0.34588100
    49  H          0.34830000       0.71520000       0.54620000
    50  H          0.65170000       0.28480000       0.45380000
    51  H          0.20230000       0.54320000       0.52420000
    52  H          0.79770000       0.45680000       0.47580000
    53  O          0.31043180       0.96331160       0.37733110
    54  O          0.68956820       0.03668840       0.62266890
    55  C          0.16662000       0.98003170       0.43353140
    56  C          0.83338000       0.01996830       0.56646860
    57  C          0.21552000       0.09534180       0.54648150
    58  C          0.78448000       0.90465820       0.45351850
    59  C          0.93978000       0.88648170       0.39129150
    60  C          0.06022000       0.11351830       0.60870850
    61  H          0.36330000       0.15420000       0.57181800
    62  H          0.63670000       0.84580000       0.42818200
    63  H          0.91270000       0.81420000       0.31820000
    64  H          0.08730000       0.18580000       0.68180000
