data_IFOHOC
_symmetry_space_group_name_H-M    'P1'
_symmetry_Int_Tables_number       1
loop_
_symmetry_equiv_pos_site_id
_symmetry_equiv_pos_as_xyz
1 x,y,z
_cell_length_a                   9.838201
_cell_length_b                   19.20304
_cell_length_c                   16.04813
_cell_angle_alpha                90.0
_cell_angle_beta                 98.67701
_cell_angle_gamma                90.0
loop_
_atom_site_label
_atom_site_type_symbol
_atom_site_fract_x
_atom_site_fract_y
_atom_site_fract_z
     1  I          0.09371600       0.28662300       0.53918400
     2  I          0.40628400       0.78662300       0.96081600
     3  I          0.90628400       0.71337700       0.46081600
     4  I          0.59371600       0.21337700       0.03918400
     5  I          0.42197500       0.59998300       0.15592300
     6  I          0.07802500       0.09998300       0.34407700
     7  I          0.57802500       0.40001700       0.84407700
     8  I          0.92197500       0.90001700       0.65592300
     9  I          0.42667600       0.61097300       0.80656300
    10  I          0.07332400       0.11097300       0.69343700
    11  I          0.57332400       0.38902700       0.19343700
    12  I          0.92667600       0.88902700       0.30656300
    13  F          0.78695000       0.47933000       0.66383000
    14  F          0.71305000       0.97933000       0.83617000
    15  F          0.21305000       0.52067000       0.33617000
    16  F          0.28695000       0.02067000       0.16383000
    17  F          0.49655000       0.62553000       0.48443000
    18  F          0.00345000       0.12553000       0.01557000
    19  F          0.50345000       0.37447000       0.51557000
    20  F         -0.00345000       0.87447000       0.98443000
    21  F          0.79655000       0.47513000       0.37363000
    22  F          0.70345000       0.97513000       0.12637000
    23  F          0.20345000       0.52487000       0.62637000
    24  F          0.29655000       0.02487000       0.87363000
    25  C          0.97769000       0.37374000       0.53525000
    26  C          0.52231000       0.87374000       0.96475000
    27  C          0.02231000       0.62626000       0.46475000
    28  C          0.47769000       0.12626000       0.03525000
    29  C          0.89908000       0.41975000       0.52915000
    30  C          0.60092000       0.91975000       0.97085000
    31  C          0.10092000       0.58025000       0.47085000
    32  C          0.39908000       0.08025000       0.02915000
    33  C          0.79848000       0.47604000       0.51985000
    34  C          0.70152000       0.97604000       0.98015000
    35  C          0.20152000       0.52396000       0.48015000
    36  C          0.29848000       0.02396000       0.01985000
    37  C          0.74668000       0.50154000       0.44045000
    38  C          0.75332000       0.00154000       0.05955000
    39  C          0.25332000       0.49846000       0.55955000
    40  C          0.24668000      -0.00154000       0.94045000
    41  C          0.64438000       0.55194000       0.42504000
    42  C          0.85562000       0.05194000       0.07496000
    43  C          0.35562000       0.44806000       0.57496000
    44  C          0.14438000       0.94806000       0.92504000
    45  C          0.59668000       0.57754000       0.49595000
    46  C          0.90332000       0.07754000       0.00405000
    47  C          0.40332000       0.42246000       0.50405000
    48  C          0.09668000       0.92246000      -0.00405000
    49  C          0.64178000       0.55554000       0.57764000
    50  C          0.85822000       0.05554000       0.92236000
    51  C          0.35822000       0.44446000       0.42236000
    52  C          0.14178000       0.94446000       0.07764000
    53  C          0.74178000       0.50474000       0.58644000
    54  C          0.75822000       0.00474000       0.91356000
    55  C          0.25822000       0.49526000       0.41356000
    56  C          0.24178000      -0.00474000       0.08644000
    57  C          0.52638000       0.58414000       0.27235000
    58  C          0.97362000       0.08414000       0.22765000
    59  C          0.47362000       0.41586000       0.72765000
    60  C          0.02638000       0.91586000       0.77235000
    61  C          0.58558000       0.57154000       0.34175000
    62  C          0.91442000       0.07154000       0.15825000
    63  C          0.41442000       0.42846000       0.65825000
    64  C          0.08558000       0.92846000       0.84175000
    65  C          0.52399000       0.59405000       0.70695000
    66  C          0.97601000       0.09405000       0.79305000
    67  C          0.47601000       0.40595000       0.29305000
    68  C          0.02399000       0.90595000       0.20695000
    69  C          0.57889000       0.57904000       0.64815000
    70  C          0.92111000       0.07904000       0.85185000
    71  C          0.42111000       0.42096000       0.35185000
    72  C          0.07889000       0.92096000       0.14815000
    73  Br         0.24037900       0.12975500       0.53255500
    74  Br         0.25962100       0.62975500       0.96744500
    75  Br         0.75962100       0.87024500       0.46744500
    76  Br         0.74037900       0.37024500       0.03255500
    77  N          0.89837000       0.64504000       0.12934000
    78  N          0.60163000       0.14504000       0.37066000
    79  N          0.10163000       0.35496000       0.87066000
    80  N          0.39837000       0.85496000       0.62934000
    81  C          0.86691400       0.61368000       0.04347000
    82  C          0.63308600       0.11368000       0.45653000
    83  C          0.13308600       0.38632000       0.95653000
    84  C          0.36691400       0.88632000       0.54347000
    85  H          0.93050000       0.57550000       0.03980000
    86  H          0.56950000       0.07550000       0.46020000
    87  H          0.06950000       0.42450000       0.96020000
    88  H          0.43050000       0.92450000       0.53980000
    89  H          0.88450000       0.64850000       0.00250000
    90  H          0.61550000       0.14850000       0.49750000
    91  H          0.11550000       0.35150000      -0.00250000
    92  H          0.38450000       0.85150000       0.50250000
    93  C          0.72241200       0.58658000       0.01828000
    94  C          0.77758800       0.08658000       0.48172000
    95  C          0.27758800       0.41342000       0.98172000
    96  C          0.22241200       0.91342000       0.51828000
    97  H          0.71330000       0.56740000       0.96240000
    98  H          0.78670000       0.06740000       0.53760000
    99  H          0.28670000       0.43260000       0.03760000
   100  H          0.21330000       0.93260000       0.46240000
   101  H          0.65810000       0.62400000       0.01910000
   102  H          0.84190000       0.12400000       0.48090000
   103  H          0.34190000       0.37600000       0.98090000
   104  H          0.15810000       0.87600000       0.51910000
   105  H          0.70400000       0.55100000       0.05700000
   106  H          0.79600000       0.05100000       0.44300000
   107  H          0.29600000       0.44900000       0.94300000
   108  H          0.20400000       0.94900000       0.55700000
   109  C          0.86920000       0.59218000       0.19441000
   110  C          0.63080000       0.09218000       0.30559000
   111  C          0.13080000       0.40782000       0.80559000
   112  C          0.36920000       0.90782000       0.69441000
   113  H          0.89270000       0.61200000       0.25020000
   114  H          0.60730000       0.11200000       0.24980000
   115  H          0.10730000       0.38800000       0.74980000
   116  H          0.39270000       0.88800000       0.75020000
   117  H          0.77080000       0.58210000       0.18590000
   118  H          0.72920000       0.08210000       0.31410000
   119  H          0.22920000       0.41790000       0.81410000
   120  H          0.27080000       0.91790000       0.68590000
   121  C          0.94720000       0.52509000       0.18991200
   122  C          0.55280000       0.02509000       0.31008800
   123  C          0.05280000       0.47491000       0.81008800
   124  C          0.44720000       0.97491000       0.68991200
   125  H          0.92170000       0.49280000       0.23080000
   126  H          0.57830000      -0.00720000       0.26920000
   127  H          0.07830000       0.50720000       0.76920000
   128  H          0.42170000       0.00720000       0.73080000
   129  H          0.04350000       0.53410000       0.20150000
   130  H          0.45650000       0.03410000       0.29850000
   131  H          0.95650000       0.46590000       0.79850000
   132  H          0.54350000       0.96590000       0.70150000
   133  H          0.92420000       0.50530000       0.13450000
   134  H          0.57580000       0.00530000       0.36550000
   135  H          0.07580000       0.49470000       0.86550000
   136  H          0.42420000      -0.00530000       0.63450000
   137  C          0.04271200       0.66929000       0.14301000
   138  C          0.45728800       0.16929000       0.35699000
   139  C          0.95728800       0.33071000       0.85699000
   140  C          0.54271200       0.83071000       0.64301000
   141  H          0.05260000       0.70620000       0.10310000
   142  H          0.44740000       0.20620000       0.39690000
   143  H          0.94740000       0.29380000       0.89690000
   144  H          0.55260000       0.79380000       0.60310000
   145  H          0.10160000       0.63110000       0.13130000
   146  H          0.39840000       0.13110000       0.36870000
   147  H          0.89840000       0.36890000       0.86870000
   148  H          0.60160000       0.86890000       0.63130000
   149  C          0.09291200       0.69678000       0.23418000
   150  C          0.40708800       0.19678000       0.26582000
   151  C          0.90708800       0.30322000       0.76582000
   152  C          0.59291200       0.80322000       0.73418000
   153  H          0.18610000       0.71260000       0.23800000
   154  H          0.31390000       0.21260000       0.26200000
   155  H          0.81390000       0.28740000       0.76200000
   156  H          0.68610000       0.78740000       0.73800000
   157  H          0.08820000       0.65970000       0.27390000
   158  H          0.41180000       0.15970000       0.22610000
   159  H          0.91180000       0.34030000       0.72610000
   160  H          0.58820000       0.84030000       0.77390000
   161  H          0.03520000       0.73450000       0.24630000
   162  H          0.46480000       0.23450000       0.25370000
   163  H          0.96480000       0.26550000       0.75370000
   164  H          0.53520000       0.76550000       0.74630000
   165  C          0.80111300       0.70647000       0.14011000
   166  C          0.69888700       0.20647000       0.35989000
   167  C          0.19888700       0.29353000       0.85989000
   168  C          0.30111300       0.79353000       0.64011000
   169  H          0.70760000       0.68900000       0.13340000
   170  H          0.79240000       0.18900000       0.36660000
   171  H          0.29240000       0.31100000       0.86660000
   172  H          0.20760000       0.81100000       0.63340000
   173  H          0.82340000       0.72410000       0.19710000
   174  H          0.67660000       0.22410000       0.30290000
   175  H          0.17660000       0.27590000       0.80290000
   176  H          0.32340000       0.77590000       0.69710000
   177  C          0.80720000       0.76358000       0.08191300
   178  C          0.69280000       0.26358000       0.41808700
   179  C          0.19280000       0.23642000       0.91808700
   180  C          0.30720000       0.73642000       0.58191300
   181  H          0.74510000       0.79960000       0.09370000
   182  H          0.75490000       0.29960000       0.40630000
   183  H          0.25490000       0.20040000       0.90630000
   184  H          0.24510000       0.70040000       0.59370000
   185  H          0.78020000       0.74720000       0.02520000
   186  H          0.71980000       0.24720000       0.47480000
   187  H          0.21980000       0.25280000       0.97480000
   188  H          0.28020000       0.75280000       0.52520000
   189  H          0.89880000       0.78150000       0.08810000
   190  H          0.60120000       0.28150000       0.41190000
   191  H          0.10120000       0.21850000       0.91190000
   192  H          0.39880000       0.71850000       0.58810000
   193  Cl         0.84005000       0.63294000       0.81963000
   194  Cl         0.65995000       0.13294000       0.68037000
   195  Cl         0.15995000       0.36706000       0.18037000
   196  Cl         0.34005000       0.86706000       0.31963000
   197  Cl        -0.00804000       0.65484000       0.69393000
   198  Cl         0.50804000       0.15484000       0.80607000
   199  Cl         0.00804000       0.34516000       0.30607000
   200  Cl         0.49196000       0.84516000       0.19393000
   201  Cl         0.00237000       0.75322000       0.82714000
   202  Cl         0.49763000       0.25322000       0.67286000
   203  Cl        -0.00237000       0.24678000       0.17286000
   204  Cl         0.50237000       0.74678000       0.32714000
   205  C         -0.00978900       0.66836000       0.79797000
   206  C          0.50978900       0.16836000       0.70203000
   207  C          0.00978900       0.33164000       0.20203000
   208  C          0.49021100       0.83164000       0.29797000
   209  H          0.06730000       0.64290000       0.82990000
   210  H          0.43270000       0.14290000       0.67010000
   211  H          0.93270000       0.35710000       0.17010000
   212  H          0.56730000       0.85710000       0.32990000
