data_IFOHAO
_symmetry_space_group_name_H-M    'P1'
_symmetry_Int_Tables_number       1
loop_
_symmetry_equiv_pos_site_id
_symmetry_equiv_pos_as_xyz
1 x,y,z
_cell_length_a                   14.057411
_cell_length_b                   7.20706
_cell_length_c                   18.683614
_cell_angle_alpha                90.0
_cell_angle_beta                 90.0
_cell_angle_gamma                90.0
loop_
_atom_site_label
_atom_site_type_symbol
_atom_site_fract_x
_atom_site_fract_y
_atom_site_fract_z
     1  C          0.21844000       0.75000000       0.55093000
     2  C          0.28156000       0.25000000       0.05093000
     3  C          0.71844000       0.75000000       0.94907000
     4  C          0.78156000       0.25000000       0.44907000
     5  C          0.22524000       0.75000000       0.62543000
     6  C          0.27476000       0.25000000       0.12543000
     7  C          0.72524000       0.75000000       0.87457000
     8  C          0.77476000       0.25000000       0.37457000
     9  C          0.31184000       0.75000000       0.66203000
    10  C          0.18816000       0.25000000       0.16203000
    11  C          0.81184000       0.75000000       0.83797000
    12  C          0.68816000       0.25000000       0.33797000
    13  C          0.39374000       0.75000000       0.61993000
    14  C          0.10626000       0.25000000       0.11993000
    15  C          0.89374000       0.75000000       0.88007000
    16  C          0.60626000       0.25000000       0.38007000
    17  C          0.39334000       0.75000000       0.54543000
    18  C          0.10666000       0.25000000       0.04543000
    19  C          0.89334000       0.75000000       0.95457000
    20  C          0.60666000       0.25000000       0.45457000
    21  C          0.30424000       0.75000000       0.51383000
    22  C          0.19576000       0.25000000       0.01383000
    23  C          0.80424000       0.75000000       0.98617000
    24  C          0.69576000       0.25000000       0.48617000
    25  C          0.12984000       0.75000000       0.51233000
    26  C          0.37016000       0.25000000       0.01233000
    27  C          0.62984000       0.75000000       0.98767000
    28  C          0.87016000       0.25000000       0.48767000
    29  C          0.06244000       0.75000000       0.47423000
    30  C          0.43756000       0.25000000       0.97423000
    31  C          0.56244000       0.75000000       0.02577000
    32  C          0.93756000       0.25000000       0.52577000
    33  C          0.31734000       0.75000000       0.73913000
    34  C          0.18266000       0.25000000       0.23913000
    35  C          0.81734000       0.75000000       0.76087000
    36  C          0.68266000       0.25000000       0.26087000
    37  C          0.32274000       0.75000000       0.80223000
    38  C          0.17726000       0.25000000       0.30223000
    39  C          0.82274000       0.75000000       0.69777000
    40  C          0.67726000       0.25000000       0.19777000
    41  C          0.47804000       0.75000000       0.50273000
    42  C          0.02196000       0.25000000       0.00273000
    43  C          0.97804000       0.75000000      -0.00273000
    44  C          0.52196000       0.25000000       0.49727000
    45  C          0.54624000       0.75000000       0.46453000
    46  C          0.95376000       0.25000000       0.96453000
    47  C          0.04624000       0.75000000       0.03547000
    48  C          0.45376000       0.25000000       0.53547000
    49  F          0.14482000       0.75000000       0.66352150
    50  F          0.35518000       0.25000000       0.16352150
    51  F          0.64482000       0.75000000       0.83647850
    52  F          0.85518000       0.25000000       0.33647850
    53  F          0.47802000       0.75000000       0.65340180
    54  F          0.02198000       0.25000000       0.15340180
    55  F          0.97802000       0.75000000       0.84659820
    56  F          0.52198000       0.25000000       0.34659820
    57  F          0.29962000       0.75000000       0.44154160
    58  F          0.20038000       0.25000000       0.94154160
    59  F          0.79962000       0.75000000       0.05845840
    60  F          0.70038000       0.25000000       0.55845840
    61  I          0.95398700       0.75000000       0.40348616
    62  I          0.54601300       0.25000000       0.90348616
    63  I          0.45398700       0.75000000       0.09651384
    64  I          0.04601300       0.25000000       0.59651384
    65  I          0.33282400       0.75000000       0.90909200
    66  I          0.16717600       0.25000000       0.40909200
    67  I          0.83282400       0.75000000       0.59090800
    68  I          0.66717600       0.25000000       0.09090800
    69  I          0.65691200       0.75000000       0.39588618
    70  I          0.84308800       0.25000000       0.89588618
    71  I          0.15691200       0.75000000       0.10411382
    72  I          0.34308800       0.25000000       0.60411382
    73  C          0.10753000       0.43616000       0.79872000
    74  C          0.39247000       0.56384000       0.29872000
    75  C          0.60753000       0.06384000       0.70128000
    76  C          0.89247000       0.93616000       0.20128000
    77  C          0.89247000       0.56384000       0.20128000
    78  C          0.60753000       0.43616000       0.70128000
    79  C          0.39247000       0.93616000       0.29872000
    80  C          0.10753000       0.06384000       0.79872000
    81  H          0.13670000       0.55220000       0.78650000
    82  H          0.36330000       0.44780000       0.28650000
    83  H          0.63670000       0.94780000       0.71350000
    84  H          0.86330000       0.05220000       0.21350000
    85  H          0.86330000       0.44780000       0.21350000
    86  H          0.63670000       0.55220000       0.71350000
    87  H          0.36330000       0.05220000       0.28650000
    88  H          0.13670000       0.94780000       0.78650000
    89  H          0.09470000       0.43310000       0.84920000
    90  H          0.40530000       0.56690000       0.34920000
    91  H          0.59470000       0.06690000       0.65080000
    92  H          0.90530000       0.93310000       0.15080000
    93  H          0.90530000       0.56690000       0.15080000
    94  H          0.59470000       0.43310000       0.65080000
    95  H          0.40530000       0.93310000       0.34920000
    96  H          0.09470000       0.06690000       0.84920000
    97  H          0.04890000       0.42280000       0.77280000
    98  H          0.45110000       0.57720000       0.27280000
    99  H          0.54890000       0.07720000       0.72720000
   100  H          0.95110000       0.92280000       0.22720000
   101  H          0.95110000       0.57720000       0.22720000
   102  H          0.54890000       0.42280000       0.72720000
   103  H          0.45110000       0.92280000       0.27280000
   104  H          0.04890000       0.07720000       0.77280000
   105  O          0.19223000       0.25000000       0.69472000
   106  O          0.30777000       0.75000000       0.19472000
   107  O          0.69223000       0.25000000       0.80528000
   108  O          0.80777000       0.75000000       0.30528000
   109  S          0.18585900       0.25000000       0.77584700
   110  S          0.31414100       0.75000000       0.27584700
   111  S          0.68585900       0.25000000       0.72415300
   112  S          0.81414100       0.75000000       0.22415300
