data_IFOJAQ
_symmetry_space_group_name_H-M    'P1'
_symmetry_Int_Tables_number       1
loop_
_symmetry_equiv_pos_site_id
_symmetry_equiv_pos_as_xyz
1 x,y,z
_cell_length_a                   8.60222
_cell_length_b                   26.16137
_cell_length_c                   13.60723
_cell_angle_alpha                90.0
_cell_angle_beta                 90.27301
_cell_angle_gamma                90.0
loop_
_atom_site_label
_atom_site_type_symbol
_atom_site_fract_x
_atom_site_fract_y
_atom_site_fract_z
     1  I          0.45165300       0.22330310       0.44055219
     2  I          0.04834700       0.72330310       0.05944781
     3  I          0.54834700       0.77669690       0.55944781
     4  I          0.95165300       0.27669690       0.94055219
     5  I          0.13293300       0.90843389       0.21961018
     6  I          0.36706700       0.40843389       0.28038982
     7  I          0.86706700       0.09156611       0.78038982
     8  I          0.63293300       0.59156611       0.71961018
     9  I          0.43719300       0.89003888       0.84512200
    10  I          0.06280700       0.39003888       0.65487800
    11  I          0.56280700       0.10996112       0.15487800
    12  I          0.93719300       0.60996112       0.34512200
    13  F          0.82853000       0.06582100       0.35967180
    14  F          0.67147000       0.56582100       0.14032820
    15  F          0.17147000       0.93417900       0.64032820
    16  F          0.32853000       0.43417900       0.85967180
    17  F          0.80713000       0.91575100       0.54433180
    18  F          0.69287000       0.41575100       0.95566820
    19  F          0.19287000       0.08424900       0.45566820
    20  F          0.30713000       0.58424900       0.04433180
    21  F          0.51653000       0.05835100       0.63992180
    22  F          0.98347000       0.55835100       0.86007820
    23  F          0.48347000       0.94164900       0.36007820
    24  F          0.01653000       0.44164900       0.13992180
    25  C          0.56465000       0.15629170       0.46193000
    26  C          0.93535000       0.65629170       0.03807000
    27  C          0.43535000       0.84370830       0.53807000
    28  C          0.06465000       0.34370830       0.96193000
    29  C          0.61785000       0.11542170       0.48093000
    30  C          0.88215000       0.61542170       0.01907000
    31  C          0.38215000       0.88457830       0.51907000
    32  C          0.11785000       0.38457830       0.98093000
    33  C          0.67244000       0.06501150       0.50023000
    34  C          0.82756000       0.56501150      -0.00023000
    35  C          0.32756000       0.93498850       0.49977000
    36  C          0.17244000       0.43498850       0.00023000
    37  C          0.77444000       0.04003160       0.43713000
    38  C          0.72556000       0.54003160       0.06287000
    39  C          0.22556000       0.95996840       0.56287000
    40  C          0.27444000       0.45996840       0.93713000
    41  C          0.82274000       0.98977850       0.44953000
    42  C          0.67726000       0.48977850       0.05047000
    43  C          0.17726000       0.01022150       0.55047000
    44  C          0.32274000       0.51022150       0.94953000
    45  C          0.76374000       0.96430850       0.53063000
    46  C          0.73626000       0.46430850       0.96937000
    47  C          0.23626000       0.03569150       0.46937000
    48  C          0.26374000       0.53569150       0.03063000
    49  C          0.66114000       0.98626840       0.59753000
    50  C          0.83886000       0.48626840       0.90247000
    51  C          0.33886000       0.01373160       0.40247000
    52  C          0.16114000       0.51373160       0.09753000
    53  C          0.61924000       0.03614160       0.57913000
    54  C          0.88076000       0.53614160       0.92087000
    55  C          0.38076000       0.96385840       0.42087000
    56  C          0.11924000       0.46385840       0.07913000
    57  C          0.00864000       0.94649840       0.32163000
    58  C          0.49136000       0.44649840       0.17837000
    59  C         -0.00864000       0.05350160       0.67837000
    60  C          0.50864000       0.55350160       0.82163000
    61  C          0.92344000       0.96577840       0.38013000
    62  C          0.57656000       0.46577840       0.11987000
    63  C          0.07656000       0.03422160       0.61987000
    64  C          0.42344000       0.53422160       0.88013000
    65  C          0.54065000       0.93231820       0.74053000
    66  C          0.95935000       0.43231820       0.75947000
    67  C          0.45935000       0.06768180       0.25947000
    68  C          0.04065000       0.56768180       0.24053000
    69  C          0.59805000       0.95727830       0.67743000
    70  C          0.90195000       0.45727830       0.82257000
    71  C          0.40195000       0.04272170       0.32257000
    72  C          0.09805000       0.54272170       0.17743000
    73  S          0.39890110       0.17286400       0.78593700
    74  S          0.10109890       0.67286400       0.71406300
    75  S          0.60109890       0.82713600       0.21406300
    76  S          0.89890110       0.32713600       0.28593700
    77  C          0.40205000       0.23982160       0.81913000
    78  C          0.09795000       0.73982160       0.68087000
    79  C          0.59795000       0.76017840       0.18087000
    80  C          0.90205000       0.26017840       0.31913000
    81  H          0.29610000       0.25170000       0.82770000
    82  H          0.20390000       0.75170000       0.67230000
    83  H          0.70390000       0.74830000       0.17230000
    84  H          0.79610000       0.24830000       0.32770000
    85  H          0.45590000       0.24370000       0.88150000
    86  H          0.04410000       0.74370000       0.61850000
    87  H          0.54410000       0.75630000       0.11850000
    88  H          0.95590000       0.25630000       0.38150000
    89  C          0.48185000       0.27293180       0.74213000
    90  C          0.01815000       0.77293180       0.75787000
    91  C          0.51815000       0.72706820       0.25787000
    92  C          0.98185000       0.22706820       0.24213000
    93  H          0.58530000       0.25970000       0.72980000
    94  H          0.91470000       0.75970000       0.77020000
    95  H          0.41470000       0.74030000       0.27020000
    96  H          0.08530000       0.24030000       0.22980000
    97  H          0.42340000       0.27140000       0.68100000
    98  H          0.07660000       0.77140000       0.81900000
    99  H          0.57660000       0.72860000       0.31900000
   100  H          0.92340000       0.22860000       0.18100000
   101  C          0.49336000       0.32796180       0.77584000
   102  C          0.00664000       0.82796180       0.72416000
   103  C          0.50664000       0.67203820       0.22416000
   104  C         -0.00664000       0.17203820       0.27584000
   105  H          0.38960000       0.34070000       0.78900000
   106  H          0.11040000       0.84070000       0.71100000
   107  H          0.61040000       0.65930000       0.21100000
   108  H          0.88960000       0.15930000       0.28900000
   109  H          0.55190000       0.32920000       0.83690000
   110  H          0.94810000       0.82920000       0.66310000
   111  H          0.44810000       0.67080000       0.16310000
   112  H          0.05190000       0.17080000       0.33690000
   113  C          0.56987000       0.36232000       0.70204000
   114  C          0.93013000       0.86232000       0.79796000
   115  C          0.43013000       0.63768000       0.29796000
   116  C          0.06987000       0.13768000       0.20204000
   117  H          0.57420000       0.39650000       0.72740000
   118  H          0.92580000       0.89650000       0.77260000
   119  H          0.42580000       0.60350000       0.27260000
   120  H          0.07420000       0.10350000       0.22740000
   121  H          0.51080000       0.36200000       0.64190000
   122  H         -0.01080000       0.86200000       0.85810000
   123  H          0.48920000       0.63800000       0.35810000
   124  H          0.01080000       0.13800000       0.14190000
   125  H          0.67330000       0.35030000       0.68950000
   126  H          0.82670000       0.85030000       0.81050000
   127  H          0.32670000       0.64970000       0.31050000
   128  H          0.17330000       0.14970000       0.18950000
   129  C          0.29185000       0.14537170       0.88693000
   130  C          0.20815000       0.64537170       0.61307000
   131  C          0.70815000       0.85462830       0.11307000
   132  C          0.79185000       0.35462830       0.38693000
   133  H          0.33360000       0.15830000       0.94840000
   134  H          0.16640000       0.65830000       0.55160000
   135  H          0.66640000       0.84170000       0.05160000
   136  H          0.83360000       0.34170000       0.44840000
   137  H          0.18390000       0.15590000       0.88240000
   138  H          0.31610000       0.65590000       0.61760000
   139  H          0.81610000       0.84410000       0.11760000
   140  H          0.68390000       0.34410000       0.38240000
   141  C          0.29995000       0.08779170       0.88723000
   142  C          0.20005000       0.58779170       0.61277000
   143  C          0.70005000       0.91220830       0.11277000
   144  C          0.79995000       0.41220830       0.38723000
   145  H          0.40780000       0.07720000       0.89170000
   146  H          0.09220000       0.57720000       0.60830000
   147  H          0.59220000       0.92280000       0.10830000
   148  H          0.90780000       0.42280000       0.39170000
   149  H          0.25790000       0.07490000       0.82570000
   150  H          0.24210000       0.57490000       0.67430000
   151  H          0.74210000       0.92510000       0.17430000
   152  H          0.75790000       0.42510000       0.32570000
   153  C          0.21006000       0.06472000       0.97213000
   154  C          0.28994000       0.56472000       0.52787000
   155  C          0.78994000       0.93528000       0.02787000
   156  C          0.71006000       0.43528000       0.47213000
   157  H          0.25080000       0.07820000       0.03340000
   158  H          0.24920000       0.57820000       0.46660000
   159  H          0.74920000       0.92180000       0.96660000
   160  H          0.75080000       0.42180000       0.53340000
   161  H          0.10190000       0.07490000       0.96680000
   162  H          0.39810000       0.57490000       0.53320000
   163  H          0.89810000       0.92510000       0.03320000
   164  H          0.60190000       0.42510000       0.46680000
   165  C          0.21928000       0.00772000       0.97455000
   166  C          0.28072000       0.50772000       0.52545000
   167  C          0.78072000       0.99228000       0.02545000
   168  C          0.71928000       0.49228000       0.47455000
   169  H          0.16060000      -0.00500000       0.02920000
   170  H          0.33940000       0.49500000       0.47080000
   171  H          0.83940000       0.00500000       0.97080000
   172  H          0.66060000       0.50500000       0.52920000
   173  H          0.32580000      -0.00270000       0.98130000
   174  H          0.17420000       0.49730000       0.51870000
   175  H          0.67420000       0.00270000       0.01870000
   176  H          0.82580000       0.50270000       0.48130000
   177  H          0.17710000       0.99400000       0.91460000
   178  H          0.32290000       0.49400000       0.58540000
   179  H          0.82290000       0.00600000       0.08540000
   180  H          0.67710000       0.50600000       0.41460000
   181  C          0.26435000       0.16919170       0.68343000
   182  C          0.23565000       0.66919170       0.81657000
   183  C          0.73565000       0.83080830       0.31657000
   184  C          0.76435000       0.33080830       0.18343000
   185  H          0.32190000       0.17610000       0.62380000
   186  H          0.17810000       0.67610000       0.87620000
   187  H          0.67810000       0.82390000       0.37620000
   188  H          0.82190000       0.32390000       0.12380000
   189  H          0.22700000       0.13430000       0.67910000
   190  H          0.27300000       0.63430000       0.82090000
   191  H          0.77300000       0.86570000       0.32090000
   192  H          0.72700000       0.36570000       0.17910000
   193  C          0.12475000       0.20405170       0.68483000
   194  C          0.37525000       0.70405170       0.81517000
   195  C          0.87525000       0.79594830       0.31517000
   196  C          0.62475000       0.29594830       0.18483000
   197  H          0.15970000       0.23930000       0.68620000
   198  H          0.34030000       0.73930000       0.81380000
   199  H          0.84030000       0.76070000       0.31380000
   200  H          0.65970000       0.26070000       0.18620000
   201  H          0.06560000       0.19780000       0.74400000
   202  H          0.43440000       0.69780000       0.75600000
   203  H          0.93440000       0.80220000       0.25600000
   204  H          0.56560000       0.30220000       0.24400000
   205  C          0.01895000       0.19597180       0.59463000
   206  C          0.48105000       0.69597180       0.90537000
   207  C          0.98105000       0.80402820       0.40537000
   208  C          0.51895000       0.30402820       0.09463000
   209  H          0.07630000       0.20380000       0.53530000
   210  H          0.42370000       0.70380000       0.96470000
   211  H          0.92370000       0.79620000       0.46470000
   212  H          0.57630000       0.29620000       0.03530000
   213  H         -0.01280000       0.16040000       0.59140000
   214  H          0.51280000       0.66040000       0.90860000
   215  H          0.01280000       0.83960000       0.40860000
   216  H          0.48720000       0.33960000       0.09140000
   217  C          0.87744000       0.22932000       0.59964000
   218  C          0.62256000       0.72932000       0.90036000
   219  C          0.12256000       0.77068000       0.40036000
   220  C          0.37744000       0.27068000       0.09964000
   221  H          0.81340000       0.22340000       0.54280000
   222  H          0.68660000       0.72340000       0.95720000
   223  H          0.18660000       0.77660000       0.45720000
   224  H          0.31340000       0.27660000       0.04280000
   225  H          0.90860000       0.26450000       0.60130000
   226  H          0.59140000       0.76450000       0.89870000
   227  H          0.09140000       0.73550000       0.39870000
   228  H          0.40860000       0.23550000       0.10130000
   229  H          0.81990000       0.22130000       0.65790000
   230  H          0.68010000       0.72130000       0.84210000
   231  H          0.18010000       0.77870000       0.34210000
   232  H          0.31990000       0.27870000       0.15790000
   233  I          0.22769300       0.32932511       0.45746919
   234  I          0.27230700       0.82932511       0.04253081
   235  I          0.77230700       0.67067489       0.54253081
   236  I          0.72769300       0.17067489       0.95746919
