data_IFOMID
_symmetry_space_group_name_H-M    'P1'
_symmetry_Int_Tables_number       1
loop_
_symmetry_equiv_pos_site_id
_symmetry_equiv_pos_as_xyz
1 x,y,z
_cell_length_a                   12.18282
_cell_length_b                   14.10912
_cell_length_c                   17.11922
_cell_angle_alpha                90.0
_cell_angle_beta                 92.46201
_cell_angle_gamma                90.0
loop_
_atom_site_label
_atom_site_type_symbol
_atom_site_fract_x
_atom_site_fract_y
_atom_site_fract_z
     1  O          0.21786100       0.28184900       0.77117700
     2  O          0.28213900       0.78184900       0.72882300
     3  O          0.78213900       0.71815100       0.22882300
     4  O          0.71786100       0.21815100       0.27117700
     5  O          0.68788100       0.08973900       0.77145700
     6  O          0.81211900       0.58973900       0.72854300
     7  O          0.31211900       0.91026100       0.22854300
     8  O          0.18788100       0.41026100       0.27145700
     9  C          0.64826140       0.18429120       0.65582100
    10  C          0.85173860       0.68429120       0.84417900
    11  C          0.35173860       0.81570880       0.34417900
    12  C          0.14826140       0.31570880       0.15582100
    13  C          0.45076150       0.44192120       0.82081100
    14  C          0.04923850       0.94192120       0.67918900
    15  C          0.54923850       0.55807880       0.17918900
    16  C          0.95076150       0.05807880       0.32081100
    17  C          0.50982150       0.12859120       0.55905100
    18  C         -0.00982150       0.62859120       0.94094900
    19  C          0.49017850       0.87140880       0.44094900
    20  C          0.00982150       0.37140880       0.05905100
    21  C          0.30314140       0.32597120       0.81441100
    22  C          0.19685860       0.82597120       0.68558900
    23  C          0.69685860       0.67402880       0.18558900
    24  C          0.80314140       0.17402880       0.31441100
    25  C          0.36642150       0.39531120       0.77683100
    26  C          0.13357850       0.89531120       0.72316900
    27  C          0.63357850       0.60468880       0.22316900
    28  C          0.86642150       0.10468880       0.27683100
    29  C          0.51017150       0.51619120       0.78501100
    30  C         -0.01017150       0.01619120       0.71498900
    31  C          0.48982850       0.48380880       0.21498900
    32  C          0.01017150       0.98380880       0.28501100
    33  C          0.71179140       0.26084130       0.77603100
    34  C          0.78820860       0.76084130       0.72396900
    35  C          0.28820860       0.73915870       0.22396900
    36  C          0.21179140       0.23915870       0.27603100
    37  C          0.70722150       0.26236130       0.68979100
    38  C          0.79277850       0.76236130       0.81020900
    39  C          0.29277850       0.73763870       0.31020900
    40  C          0.20722150       0.23763870       0.18979100
    41  C          0.35512150       0.40938120       0.69456100
    42  C          0.14487850       0.90938120       0.80543900
    43  C          0.64487850       0.59061880       0.30543900
    44  C          0.85512150       0.09061880       0.19456100
    45  C          0.59400150       0.19417120       0.58208100
    46  C          0.90599850       0.69417120       0.91791900
    47  C          0.40599850       0.80582880       0.41791900
    48  C          0.09400150       0.30582880       0.08208100
    49  C          0.24683140       0.26120130       0.69451100
    50  C          0.25316860       0.76120130       0.80548900
    51  C          0.75316860       0.73879870       0.30548900
    52  C          0.74683140       0.23879870       0.19451100
    53  C          0.29163160       0.03528130       0.59093100
    54  C          0.20836840       0.53528130       0.90906900
    55  C          0.70836840       0.96471870       0.40906900
    56  C          0.79163160       0.46471870       0.09093100
    57  H          0.22912500      -0.00185400       0.58271700
    58  H          0.27087500       0.49814600       0.91728300
    59  H          0.77087500       0.00185400       0.41728300
    60  H          0.72912500       0.50185400       0.08271700
    61  C          0.33964150       0.20374130       0.55704100
    62  C          0.16035850       0.70374130       0.94295900
    63  C          0.66035850       0.79625870       0.44295900
    64  C          0.83964150       0.29625870       0.05704100
    65  C          0.63209150       0.10028130       0.69886100
    66  C          0.86790850       0.60028130       0.80113900
    67  C          0.36790850       0.89971870       0.30113900
    68  C          0.13209150       0.39971870       0.19886100
    69  C          0.34728150       0.29761130       0.58135100
    70  C          0.15271850       0.79761130       0.91864900
    71  C          0.65271850       0.70238870       0.41864900
    72  C          0.84728150       0.20238870       0.08135100
    73  H          0.37993000       0.34183500       0.54942600
    74  H          0.12007000       0.84183500       0.95057400
    75  H          0.62007000       0.65816500       0.45057400
    76  H          0.87993000       0.15816500       0.04942600
    77  C          0.30708140       0.32710120       0.65261100
    78  C          0.19291860       0.82710120       0.84738900
    79  C          0.69291860       0.67289880       0.34738900
    80  C          0.80708140       0.17289880       0.15261100
    81  C          0.56213150       0.03091130       0.67174100
    82  C          0.93786850       0.53091130       0.82825900
    83  C          0.43786850       0.96908870       0.32825900
    84  C          0.06213150       0.46908870       0.17174100
    85  H          0.55970600       0.97271600       0.69711600
    86  H          0.94029400       0.47271600       0.80288400
    87  H          0.44029400       0.02728400       0.30288400
    88  H          0.05970600       0.52728400       0.19711600
    89  C          0.49302150       0.04870120       0.60425100
    90  C          0.00697850       0.54870120       0.89574900
    91  C          0.50697850       0.95129880       0.39574900
    92  C         -0.00697850       0.45129880       0.10425100
    93  C          0.39079160      -0.00667130       0.59374100
    94  C          0.10920840       0.49332870       0.90625900
    95  C          0.60920840       0.00667130       0.40625900
    96  C          0.89079160       0.50667130       0.09374100
    97  H          0.39502700       0.92778600       0.58893300
    98  H          0.10497300       0.42778600       0.91106700
    99  H          0.60497300       0.07221400       0.41106700
   100  H          0.89502700       0.57221400       0.08893300
   101  C          0.48273150       0.40717120       0.89634100
   102  C          0.01726850       0.90717120       0.60365900
   103  C          0.51726850       0.59282880       0.10365900
   104  C          0.98273150       0.09282880       0.39634100
   105  C          0.64082150       0.25494130       0.93019100
   106  C          0.85917850       0.75494130       0.56980900
   107  C          0.35917850       0.74505870       0.06980900
   108  C          0.14082150       0.24505870       0.43019100
   109  C          0.32575150       0.30038130       0.89021100
   110  C          0.17424850       0.80038130       0.60978900
   111  C          0.67424850       0.69961870       0.10978900
   112  C          0.82575150       0.19961870       0.39021100
   113  H          0.27851700       0.26018000       0.91570400
   114  H          0.22148300       0.76018000       0.58429600
   115  H          0.72148300       0.73982000       0.08429600
   116  H          0.77851700       0.23982000       0.41570400
   117  C          0.61621150       0.27576130       0.53573100
   118  C          0.88378850       0.77576130       0.96426900
   119  C          0.38378850       0.72423870       0.46426900
   120  C          0.11621150       0.22423870       0.03573100
   121  C          0.27917150       0.13887130       0.60054100
   122  C          0.22082850       0.63887130       0.89945900
   123  C          0.72082850       0.86112870       0.39945900
   124  C          0.77917150       0.36112870       0.10054100
   125  C          0.22630150       0.17064130       0.66681100
   126  C          0.27369850       0.67064130       0.83318900
   127  C          0.77369850       0.82935870       0.33318900
   128  C          0.72630150       0.32935870       0.16681100
   129  H          0.17786400       0.13114800       0.69189200
   130  H          0.32213600       0.63114800       0.80810800
   131  H          0.82213600       0.86885200       0.30810800
   132  H          0.67786400       0.36885200       0.19189200
   133  C          0.42268150       0.33590130       0.93015100
   134  C          0.07731850       0.83590130       0.56984900
   135  C          0.57731850       0.66409870       0.06984900
   136  C          0.92268150       0.16409870       0.43015100
   137  C          0.66629150       0.17094130       0.89165100
   138  C          0.83370850       0.67094130       0.60834900
   139  C          0.33370850       0.82905870       0.10834900
   140  C          0.16629150       0.32905870       0.39165100
   141  H          0.66496600       0.11322200       0.91783500
   142  H          0.83503400       0.61322200       0.58216500
   143  H          0.33503400       0.88677800       0.08216500
   144  H          0.16496600       0.38677800       0.41783500
   145  C          0.69354150       0.17472130       0.81393100
   146  C          0.80645850       0.67472130       0.68606900
   147  C          0.30645850       0.82527870       0.18606900
   148  C          0.19354150       0.32527870       0.31393100
   149  C          0.65863140       0.34279130       0.89398100
   150  C          0.84136860       0.84279130       0.60601900
   151  C          0.34136860       0.65720870       0.10601900
   152  C          0.15863140       0.15720870       0.39398100
   153  C          0.42192150       0.16311130       0.50034100
   154  C          0.07807850       0.66311130      -0.00034100
   155  C          0.57807850       0.83688870       0.49965900
   156  C          0.92192150       0.33688870       0.00034100
   157  H          0.38910500       0.10910800       0.47192200
   158  H          0.11089500       0.60910800       0.02807800
   159  H          0.61089500       0.89089200       0.52807800
   160  H          0.88910500       0.39089200       0.97192200
   161  C          0.41215160       0.48235130       0.66133100
   162  C          0.08784840       0.98235130       0.83866900
   163  C          0.58784840       0.51764870       0.33866900
   164  C          0.91215160       0.01764870       0.16133100
   165  H          0.40200000       0.49486500       0.60816900
   166  H          0.09800000      -0.00513500       0.89183100
   167  H          0.59800000       0.50513500       0.39183100
   168  H          0.90200000       0.00513500       0.10816900
   169  C          0.59925150       0.42933130       0.92636100
   170  C          0.90074850       0.92933130       0.57363900
   171  C          0.40074850       0.57066870       0.07363900
   172  C          0.09925150       0.07066870       0.42636100
   173  H          0.60331000       0.42783900       0.98364600
   174  H          0.89669000       0.92783900       0.51635400
   175  H          0.39669000       0.57216100       0.01635400
   176  H          0.10331000       0.07216100       0.48364600
   177  C          0.73000150       0.33916130       0.64328110
   178  C          0.76999850       0.83916130       0.85671890
   179  C          0.26999850       0.66083870       0.35671890
   180  C          0.23000150       0.16083870       0.14328110
   181  H          0.77290900       0.38854100       0.66367200
   182  H          0.72709100       0.88854100       0.83632800
   183  H          0.22709100       0.61145900       0.33632800
   184  H          0.27290900       0.11145900       0.16367200
   185  C          0.57091160       0.24690130      -0.00136900
   186  C          0.92908840       0.74690130       0.50136900
   187  C          0.42908840       0.75309870       0.00136900
   188  C          0.07091160       0.25309870       0.49863100
   189  H          0.59859000       0.21624900       0.04336000
   190  H          0.90141000       0.71624900       0.45664000
   191  H          0.40141000       0.78375100       0.95664000
   192  H          0.09859000       0.28375100       0.54336000
   193  C          0.48585160       0.53816130       0.70753110
   194  C          0.01414840       0.03816130       0.79246890
   195  C          0.51414840       0.46183870       0.29246890
   196  C          0.98585160       0.96183870       0.20753110
   197  H          0.51865900       0.59068100       0.68544400
   198  H          0.98134100       0.09068100       0.81455600
   199  H          0.48134100       0.40931900       0.31455600
   200  H          0.01865900       0.90931900       0.18544400
   201  C          0.69991140       0.34429130       0.81909100
   202  C          0.80008860       0.84429130       0.68090900
   203  C          0.30008860       0.65570870       0.18090900
   204  C          0.19991140       0.15570870       0.31909100
   205  H          0.71988500       0.40187900       0.79741500
   206  H          0.78011500       0.90187900       0.70258500
   207  H          0.28011500       0.59812100       0.20258500
   208  H          0.21988500       0.09812100       0.29741500
   209  C          0.46916160       0.28248130      -0.00213900
   210  C          0.03083840       0.78248130       0.50213900
   211  C          0.53083840       0.71751870       0.00213900
   212  C          0.96916160       0.21751870       0.49786100
   213  H          0.42664400       0.27331900       0.04106000
   214  H          0.07335600       0.77331900       0.45894000
   215  H          0.57335600       0.72668100       0.95894000
   216  H          0.92664400       0.22668100       0.54106000
   217  C          0.46566160       0.23359130       0.44343100
   218  C          0.03433840       0.73359130       0.05656900
   219  C          0.53433840       0.76640870       0.55656900
   220  C          0.96566160       0.26640870       0.94343100
   221  H          0.42876800       0.24182500       0.39521000
   222  H          0.07123200       0.74182500       0.10479000
   223  H          0.57123200       0.75817500       0.60479000
   224  H          0.92876800       0.25817500       0.89521000
   225  C          0.59641160       0.56316130       0.83224110
   226  C          0.90358840       0.06316130       0.66775890
   227  C          0.40358840       0.43683870       0.16775890
   228  C          0.09641160       0.93683870       0.33224110
   229  H          0.62261400       0.62170400       0.81643400
   230  H          0.87738600       0.12170400       0.68356600
   231  H          0.37738600       0.37829600       0.18356600
   232  H          0.12261400       0.87829600       0.31643400
   233  C          0.63859160       0.52357130       0.89795100
   234  C          0.86140840       0.02357130       0.60204900
   235  C          0.36140840       0.47642870       0.10204900
   236  C          0.13859160       0.97642870       0.39795100
   237  H          0.69368100       0.55525100       0.92674500
   238  H          0.80631900       0.05525100       0.57325500
   239  H          0.30631900       0.44474900       0.07325500
   240  H          0.19368100       0.94474900       0.42674500
   241  C          0.55585160       0.28458130       0.46022100
   242  C          0.94414840       0.78458130       0.03977900
   243  C          0.44414840       0.71541870       0.53977900
   244  C          0.05585160       0.21541870       0.96022100
   245  H          0.58094900       0.32664900       0.42315800
   246  H          0.91905100       0.82664900       0.07684200
   247  H          0.41905100       0.67335100       0.57684200
   248  H          0.08094900       0.17335100       0.92315800
   249  C          0.68894150       0.34345130       0.56536110
   250  C          0.81105850       0.84345130       0.93463890
   251  C          0.31105850       0.65654870       0.43463890
   252  C          0.18894150       0.15654870       0.06536110
   253  H          0.71096200       0.39247000       0.53326600
   254  H          0.78903800       0.89247000       0.96673400
   255  H          0.28903800       0.60753000       0.46673400
   256  H          0.21096200       0.10753000       0.03326600
   257  O          0.35123130       0.00447120       0.95135800
   258  O          0.14876870       0.50447120       0.54864200
   259  O          0.64876870      -0.00447120       0.04864200
   260  O          0.85123130       0.49552880       0.45135800
   261  C          0.39921160       0.00639140       0.89050110
   262  C          0.10078840       0.50639140       0.60949890
   263  C          0.60078840      -0.00639140       0.10949890
   264  C          0.89921160       0.49360860       0.39050110
   265  C          0.49704170       0.94446850       0.87777120
   266  C          0.00295830       0.44446850       0.62222880
   267  C          0.50295830       0.05553150       0.12222880
   268  C         -0.00295830       0.55553150       0.37777120
   269  H          0.52830700       0.92408000       0.92738900
   270  H          0.97169300       0.42408000       0.57261100
   271  H          0.47169300       0.07592000       0.07261100
   272  H          0.02830700       0.57592000       0.42738900
   273  H          0.55084800       0.97960400       0.85039300
   274  H          0.94915200       0.47960400       0.64960700
   275  H          0.44915200       0.02039600       0.14960700
   276  H          0.05084800       0.52039600       0.35039300
   277  H          0.47451400       0.89011400       0.84739000
   278  H          0.02548600       0.39011400       0.65261000
   279  H          0.52548600       0.10988600       0.15261000
   280  H          0.97451400       0.60988600       0.34739000
   281  C          0.36388180       0.06944150       0.82391130
   282  C          0.13611820       0.56944150       0.67608870
   283  C          0.63611820       0.93055850       0.17608870
   284  C          0.86388180       0.43055850       0.32391130
   285  H          0.29492400       0.09853000       0.83471000
   286  H          0.20507600       0.59853000       0.66529000
   287  H          0.70507600       0.90147000       0.16529000
   288  H          0.79492400       0.40147000       0.33471000
   289  H          0.35574200       0.03259800       0.77687500
   290  H          0.14425800       0.53259800       0.72312500
   291  H          0.64425800       0.96740200       0.22312500
   292  H          0.85574200       0.46740200       0.27687500
   293  H          0.41827100       0.11770400       0.81738200
   294  H          0.08172900       0.61770400       0.68261800
   295  H          0.58172900       0.88229600       0.18261800
   296  H          0.91827100       0.38229600       0.31738200
