data_IFUQAC
_symmetry_space_group_name_H-M    'P1'
_symmetry_Int_Tables_number       1
loop_
_symmetry_equiv_pos_site_id
_symmetry_equiv_pos_as_xyz
1 x,y,z
_cell_length_a                   4.8872
_cell_length_b                   21.3831
_cell_length_c                   7.9214
_cell_angle_alpha                90.0
_cell_angle_beta                 100.6648
_cell_angle_gamma                90.0
loop_
_atom_site_label
_atom_site_type_symbol
_atom_site_fract_x
_atom_site_fract_y
_atom_site_fract_z
     1  O          0.95693000       0.33450700       0.35022190
     2  O          0.54307000       0.83450700       0.14977810
     3  O          0.04307000       0.66549300       0.64977810
     4  O          0.45693000       0.16549300       0.85022190
     5  H          0.77960000       0.37141200       0.29830000
     6  H          0.72040000       0.87141200       0.20170000
     7  H          0.22040000       0.62858800       0.70170000
     8  H          0.27960000       0.12858800       0.79830000
     9  O          0.06744000       0.40335800       0.55962000
    10  O          0.43256000       0.90335800       0.94038000
    11  O          0.93256000       0.59664200       0.44038000
    12  O          0.56744000       0.09664200       0.05962000
    13  N          0.42425000       0.21975100       0.36933000
    14  N          0.07575000       0.71975100       0.13067000
    15  N          0.57575000       0.78024900       0.63067000
    16  N          0.92425000       0.28024900       0.86933000
    17  C          0.10584000       0.35458900       0.49032000
    18  C          0.39416000       0.85458900       0.00968000
    19  C          0.89416000       0.64541100       0.50968000
    20  C          0.60584000       0.14541100      -0.00968000
    21  C          0.34284000       0.31156100       0.56823000
    22  C          0.15716000       0.81156100       0.93177000
    23  C          0.65716000       0.68843900       0.43177000
    24  C          0.84284000       0.18843900       0.06823000
    25  H          0.51250000       0.33600000       0.59550000
    26  H         -0.01250000       0.83600000       0.90450000
    27  H          0.48750000       0.66400000       0.40450000
    28  H          0.01250000       0.16400000       0.09550000
    29  H          0.30380000       0.29480000       0.67500000
    30  H          0.19620000       0.79480000       0.82500000
    31  H          0.69620000       0.70520000       0.32500000
    32  H          0.80380000       0.20520000       0.17500000
    33  C          0.38964000       0.25990100       0.45803000
    34  C          0.11036000       0.75990100       0.04197000
    35  C          0.61036000       0.74009900       0.54197000
    36  C          0.88964000       0.24009900       0.95803000
    37  N          0.55903000       0.40726700       0.21445190
    38  N          0.94097000       0.90726700       0.28554810
    39  N          0.44097000       0.59273300       0.78554810
    40  N          0.05903000       0.09273300       0.71445190
    41  C          0.38984000       0.38664900       0.07573000
    42  C          0.11016000       0.88664900       0.42427000
    43  C          0.61016000       0.61335100       0.92427000
    44  C          0.88984000       0.11335100       0.57573000
    45  H          0.41960000       0.34680000       0.03540000
    46  H          0.08040000       0.84680000       0.46460000
    47  H          0.58040000       0.65320000       0.96460000
    48  H          0.91960000       0.15320000       0.53540000
    49  C          0.17174000       0.42138900      -0.01183000
    50  C          0.32826000       0.92138900       0.51183000
    51  C          0.82826000       0.57861100       0.01183000
    52  C          0.67174000       0.07861100       0.48817000
    53  H          0.06040000       0.40520000       0.89000000
    54  H          0.43960000       0.90520000       0.61000000
    55  H          0.93960000       0.59480000       0.11000000
    56  H          0.56040000       0.09480000       0.39000000
    57  C          0.11743000       0.48036700       0.04596190
    58  C          0.38257000       0.98036700       0.45403810
    59  C          0.88257000       0.51963300       0.95403810
    60  C          0.61743000       0.01963300       0.54596190
    61  C          0.29394000       0.50109900       0.19302000
    62  C          0.20606000       0.00109900       0.30698000
    63  C          0.70606000       0.49890100       0.80698000
    64  C          0.79394000      -0.00109900       0.69302000
    65  H          0.26620000       0.54020000       0.23840000
    66  H          0.23380000       0.04020000       0.26160000
    67  H          0.73380000       0.45980000       0.76160000
    68  H          0.76620000       0.95980000       0.73840000
    69  C          0.51094000       0.46370900       0.27222000
    70  C         -0.01094000       0.96370900       0.22778000
    71  C          0.48906000       0.53629100       0.72778000
    72  C          0.01094000       0.03629100       0.77222000
    73  H          0.62780000       0.47870000       0.37000000
    74  H          0.87220000       0.97870000       0.13000000
    75  H          0.37220000       0.52130000       0.63000000
    76  H          0.12780000       0.02130000       0.87000000
