data_IFUVUB
_symmetry_space_group_name_H-M    'P1'
_symmetry_Int_Tables_number       1
loop_
_symmetry_equiv_pos_site_id
_symmetry_equiv_pos_as_xyz
1 x,y,z
_cell_length_a                   16.3753
_cell_length_b                   15.3133
_cell_length_c                   6.517613
_cell_angle_alpha                90.0
_cell_angle_beta                 90.0
_cell_angle_gamma                90.0
loop_
_atom_site_label
_atom_site_type_symbol
_atom_site_fract_x
_atom_site_fract_y
_atom_site_fract_z
     1  C          0.06402000       0.46512000       0.25000000
     2  C          0.93598000       0.53488000       0.75000000
     3  C          0.06402000       0.03488000       0.75000000
     4  C          0.93598000       0.96512000       0.25000000
     5  H          0.08030000       0.52320000       0.25000000
     6  H          0.91970000       0.47680000       0.75000000
     7  H          0.08030000       0.97680000       0.75000000
     8  H          0.91970000       0.02320000       0.25000000
     9  N          0.26721190       0.35432000       0.25000000
    10  N          0.73278810       0.64568000       0.75000000
    11  N          0.26721190       0.14568000       0.75000000
    12  N          0.73278810       0.85432000       0.25000000
    13  N          0.33865170       0.39732000       0.25000000
    14  N          0.66134830       0.60268000       0.75000000
    15  N          0.33865170       0.10268000       0.75000000
    16  N          0.66134830       0.89732000       0.25000000
    17  N          0.32692000       0.48193000       0.25000000
    18  N          0.67308000       0.51807000       0.75000000
    19  N          0.32692000       0.01807000       0.75000000
    20  N          0.67308000       0.98193000       0.25000000
    21  N          0.24511180       0.49382000       0.25000000
    22  N          0.75488820       0.50618000       0.75000000
    23  N          0.24511180       0.00618000       0.75000000
    24  N          0.75488820      -0.00618000       0.25000000
    25  H          0.22020000       0.54320000       0.25000000
    26  H          0.77980000       0.45680000       0.75000000
    27  H          0.22020000       0.95680000       0.75000000
    28  H          0.77980000       0.04320000       0.25000000
    29  C          0.20962000       0.41492000       0.25000000
    30  C          0.79038000       0.58508000       0.75000000
    31  C          0.20962000       0.08508000       0.75000000
    32  C          0.79038000       0.91492000       0.25000000
    33  C          0.12152000       0.39882000       0.25000000
    34  C          0.87848000       0.60118000       0.75000000
    35  C          0.12152000       0.10118000       0.75000000
    36  C          0.87848000       0.89882000       0.25000000
    37  N          0.09641170       0.31585190       0.25000000
    38  N          0.90358830       0.68414810       0.75000000
    39  N          0.09641170       0.18414810       0.75000000
    40  N          0.90358830       0.81585190       0.25000000
    41  H          0.13250000       0.27500000       0.25000000
    42  H          0.86750000       0.72500000       0.75000000
    43  H          0.13250000       0.22500000       0.75000000
    44  H          0.86750000       0.77500000       0.25000000
    45  C          0.01742000       0.29383000       0.25000000
    46  C          0.98258000       0.70617000       0.75000000
    47  C          0.01742000       0.20617000       0.75000000
    48  C          0.98258000       0.79383000       0.25000000
    49  H          0.00250000       0.23520000       0.25000000
    50  H         -0.00250000       0.76480000       0.75000000
    51  H          0.00250000       0.26480000       0.75000000
    52  H         -0.00250000       0.73520000       0.25000000
    53  C          0.95877000       0.35663000       0.25000000
    54  C          0.04123000       0.64337000       0.75000000
    55  C          0.95877000       0.14337000       0.75000000
    56  C          0.04123000       0.85663000       0.25000000
    57  H          0.90380000       0.34140000       0.25000000
    58  H          0.09620000       0.65860000       0.75000000
    59  H          0.90380000       0.15860000       0.75000000
    60  H          0.09620000       0.84140000       0.25000000
    61  C          0.98188000       0.44343000       0.25000000
    62  C          0.01812000       0.55657000       0.75000000
    63  C          0.98188000       0.05657000       0.75000000
    64  C          0.01812000       0.94343000       0.25000000
    65  H          0.94250000       0.48710000       0.25000000
    66  H          0.05750000       0.51290000       0.75000000
    67  H          0.94250000       0.01290000       0.75000000
    68  H          0.05750000       0.98710000       0.25000000
    69  N          0.41162000       0.85722000       0.25000000
    70  N          0.58838000       0.14278000       0.75000000
    71  N          0.41162000       0.64278000       0.75000000
    72  N          0.58838000       0.35722000       0.25000000
    73  N          0.36352000       0.78802000       0.25000000
    74  N          0.63648000       0.21198000       0.75000000
    75  N          0.36352000       0.71198000       0.75000000
    76  N          0.63648000       0.28802000       0.25000000
    77  N          0.28862000       0.81882000       0.25000000
    78  N          0.71138000       0.18118000       0.75000000
    79  N          0.28862000       0.68118000       0.75000000
    80  N          0.71138000       0.31882000       0.25000000
    81  H          0.24620000       0.78560000       0.25000000
    82  H          0.75380000       0.21440000       0.75000000
    83  H          0.24620000       0.71440000       0.75000000
    84  H          0.75380000       0.28560000       0.25000000
    85  N          0.28362000       0.90482000       0.25000000
    86  N          0.71638000       0.09518000       0.75000000
    87  N          0.28362000       0.59518000       0.75000000
    88  N          0.71638000       0.40482000       0.25000000
    89  N          0.33937170       0.08332000       0.25000000
    90  N          0.66062830       0.91668000       0.75000000
    91  N          0.33937170       0.41668000       0.75000000
    92  N          0.66062830       0.58332000       0.25000000
    93  H          0.28800000       0.07140000       0.25000000
    94  H          0.71200000       0.92860000       0.75000000
    95  H          0.28800000       0.42860000       0.75000000
    96  H          0.71200000       0.57140000       0.25000000
    97  C          0.36192000       0.92702000       0.25000000
    98  C          0.63808000       0.07298000       0.75000000
    99  C          0.36192000       0.57298000       0.75000000
   100  C          0.63808000       0.42702000       0.25000000
   101  C          0.39312000       0.01622000       0.25000000
   102  C          0.60688000       0.98378000       0.75000000
   103  C          0.39312000       0.48378000       0.75000000
   104  C          0.60688000       0.51622000       0.25000000
   105  C          0.47602000       0.03522000       0.25000000
   106  C          0.52398000       0.96478000       0.75000000
   107  C          0.47602000       0.46478000       0.75000000
   108  C          0.52398000       0.53522000       0.25000000
   109  H          0.51450000       0.99050000       0.25000000
   110  H          0.48550000       0.00950000       0.75000000
   111  H          0.51450000       0.50950000       0.75000000
   112  H          0.48550000       0.49050000       0.25000000
   113  C          0.50052000       0.12213000       0.25000000
   114  C          0.49948000       0.87787000       0.75000000
   115  C          0.50052000       0.37787000       0.75000000
   116  C          0.49948000       0.62213000       0.25000000
   117  H          0.55590000       0.13550000       0.25000000
   118  H          0.44410000       0.86450000       0.75000000
   119  H          0.55590000       0.36450000       0.75000000
   120  H          0.44410000       0.63550000       0.25000000
   121  C          0.44443000       0.18813000       0.25000000
   122  C          0.55557000       0.81187000       0.75000000
   123  C          0.44443000       0.31187000       0.75000000
   124  C          0.55557000       0.68813000       0.25000000
   125  H          0.46110000       0.24610000       0.25000000
   126  H          0.53890000       0.75390000       0.75000000
   127  H          0.46110000       0.25390000       0.75000000
   128  H          0.53890000       0.74610000       0.25000000
   129  C          0.36202000       0.16703000       0.25000000
   130  C          0.63798000       0.83297000       0.75000000
   131  C          0.36202000       0.33297000       0.75000000
   132  C          0.63798000       0.66703000       0.25000000
   133  H          0.32280000       0.21100000       0.25000000
   134  H          0.67720000       0.78900000       0.75000000
   135  H          0.32280000       0.28900000       0.75000000
   136  H          0.67720000       0.71100000       0.25000000
   137  Cl         0.15729500       0.12495600       0.25000000
   138  Cl         0.84270500       0.87504400       0.75000000
   139  Cl         0.15729500       0.37504400       0.75000000
   140  Cl         0.84270500       0.62495600       0.25000000
   141  Cl         0.16485700       0.66996700       0.25000000
   142  Cl         0.83514300       0.33003300       0.75000000
   143  Cl         0.16485700       0.83003300       0.75000000
   144  Cl         0.83514300       0.16996700       0.25000000
