data_IFUVIS
_symmetry_space_group_name_H-M    'P1'
_symmetry_Int_Tables_number       1
loop_
_symmetry_equiv_pos_site_id
_symmetry_equiv_pos_as_xyz
1 x,y,z
_cell_length_a                   5.652701
_cell_length_b                   14.650201
_cell_length_c                   29.94752
_cell_angle_alpha                90.0
_cell_angle_beta                 90.0
_cell_angle_gamma                90.0
loop_
_atom_site_label
_atom_site_type_symbol
_atom_site_fract_x
_atom_site_fract_y
_atom_site_fract_z
     1  F          0.71307000       0.53351120       0.77783500
     2  F          0.78693000       0.46648880       0.27783500
     3  F          0.28693000       0.03351120       0.72216500
     4  F          0.21307000       0.96648880       0.22216500
     5  F          0.06965000       0.43595130       0.64566500
     6  F          0.43035000       0.56404870       0.14566500
     7  F          0.93035000       0.93595130       0.85433500
     8  F          0.56965000       0.06404870       0.35433500
     9  F          0.69206000       0.62250170       0.91311600
    10  F          0.80794000       0.37749830       0.41311600
    11  F          0.30794000       0.12250170       0.58688400
    12  F          0.19206000       0.87749830       0.08688400
    13  O          0.29423000       0.71505120       0.79626500
    14  O          0.20577000       0.28494880       0.29626500
    15  O          0.70577000       0.21505120       0.70373500
    16  O          0.79423000       0.78494880       0.20373500
    17  H          0.31652400       0.73878500       0.82069600
    18  H          0.18347600       0.26121500       0.32069600
    19  H          0.68347600       0.23878500       0.67930400
    20  H          0.81652400       0.76121500       0.17930400
    21  N          0.88427000       0.77676130       0.74318600
    22  N          0.61573000       0.22323870       0.24318600
    23  N          0.11573000       0.27676130       0.75681400
    24  N          0.38427000       0.72323870       0.25681400
    25  N          0.68566000       0.77972160       0.71778700
    26  N          0.81434000       0.22027840       0.21778700
    27  N          0.31434000       0.27972160       0.78221300
    28  N          0.18566000       0.72027840       0.28221300
    29  N         -0.00264000       0.83155150       0.67933600
    30  N          0.50264000       0.16844850       0.17933600
    31  N          0.00264000       0.33155150       0.82066400
    32  N          0.49736000       0.66844850       0.32066400
    33  N          0.20114000       0.75155150       0.88374700
    34  N          0.29886000       0.24844850       0.38374700
    35  N          0.79886000       0.25155150       0.61625300
    36  N          0.70114000       0.74844850       0.11625300
    37  N          0.04695000       0.80712000       0.95212700
    38  N          0.45305000       0.19288000       0.45212700
    39  N          0.95305000       0.30712000       0.54787300
    40  N          0.54695000       0.69288000       0.04787300
    41  C          0.89745000       0.53951160       0.74910700
    42  C          0.60255000       0.46048840       0.24910700
    43  C          0.10255000       0.03951160       0.75089300
    44  C          0.39745000       0.96048840       0.25089300
    45  C          0.89064000       0.48339170       0.71189900
    46  C          0.60936000       0.51660830       0.21189900
    47  C          0.10936000       0.98339170       0.78810100
    48  C          0.39064000       0.01660830       0.28810100
    49  H          0.76620300       0.44308900       0.70708700
    50  H          0.73379700       0.55691100       0.20708700
    51  H          0.23379700       0.94308900       0.79291300
    52  H          0.26620300       0.05691100       0.29291300
    53  C          0.07497000       0.48985180       0.68259800
    54  C          0.42503000       0.51014820       0.18259800
    55  C          0.92503000       0.98985180       0.81740200
    56  C          0.57497000       0.01014820       0.31740200
    57  C          0.26086000       0.54732000       0.68876800
    58  C          0.23914000       0.45268000       0.18876800
    59  C          0.73914000       0.04732000       0.81123200
    60  C          0.76086000       0.95268000       0.31123200
    61  H          0.38415100       0.54964300       0.66824300
    62  H          0.11584900       0.45035700       0.16824300
    63  H          0.61584900       0.04964300       0.83175700
    64  H          0.88415100       0.95035700       0.33175700
    65  C          0.26205000       0.60258180       0.72659700
    66  C          0.23795000       0.39741820       0.22659700
    67  C          0.73795000       0.10258180       0.77340300
    68  C          0.76205000       0.89741820       0.27340300
    69  H          0.38835100       0.64215900       0.73114500
    70  H          0.11164900       0.35784100       0.23114500
    71  H          0.61164900       0.14215900       0.76885500
    72  H          0.88835100       0.85784100       0.26885500
    73  C          0.07934000       0.60031150       0.75780600
    74  C          0.42066000       0.39968850       0.25780600
    75  C          0.92066000       0.10031150       0.74219400
    76  C          0.57934000       0.89968850       0.24219400
    77  C          0.07354000       0.66850140       0.79651600
    78  C          0.42646000       0.33149860       0.29651600
    79  C          0.92646000       0.16850140       0.70348400
    80  C          0.57354000       0.83149860       0.20348400
    81  C          0.87416000       0.73782150       0.78810700
    82  C          0.62584000       0.26217850       0.28810700
    83  C          0.12584000       0.23782150       0.71189300
    84  C          0.37416000       0.76217850       0.21189300
    85  H          0.72265200       0.70791900       0.79221800
    86  H          0.77734800       0.29208100       0.29221800
    87  H          0.27734800       0.20791900       0.70778200
    88  H          0.22265200       0.79208100       0.20778200
    89  H          0.88568100       0.78665400       0.80986400
    90  H          0.61431900       0.21334600       0.30986400
    91  H          0.11431900       0.28665400       0.69013600
    92  H          0.38568100       0.71334600       0.19013600
    93  C          0.06714000       0.80773160       0.71959700
    94  C          0.43286000       0.19226840       0.21959700
    95  C          0.93286000       0.30773160       0.78040300
    96  C          0.56714000       0.69226840       0.28040300
    97  H          0.22159600       0.81192200       0.73004500
    98  H          0.27840400       0.18807800       0.23004500
    99  H          0.77840400       0.31192200       0.76995500
   100  H          0.72159600       0.68807800       0.26995500
   101  C          0.76325000       0.81302000       0.67985800
   102  C          0.73675000       0.18698000       0.17985800
   103  C          0.23675000       0.31302000       0.82014200
   104  C          0.26325000       0.68698000       0.32014200
   105  H          0.66536500       0.82295200       0.65537100
   106  H          0.83463500       0.17704800       0.15537100
   107  H          0.33463500       0.32295200       0.84462900
   108  H          0.16536500       0.67704800       0.34462900
   109  C          0.03564000       0.62039150       0.84244600
   110  C          0.46436000       0.37960850       0.34244600
   111  C          0.96436000       0.12039150       0.65755400
   112  C          0.53564000       0.87960850       0.15755400
   113  H          0.88292500       0.58873800       0.84162100
   114  H          0.61707500       0.41126200       0.34162100
   115  H          0.11707500       0.08873800       0.65837900
   116  H          0.38292500       0.91126200       0.15837900
   117  C          0.03064000       0.68820160       0.88067600
   118  C          0.46936000       0.31179840       0.38067600
   119  C          0.96936000       0.18820160       0.61932400
   120  C          0.53064000       0.81179840       0.11932400
   121  C          0.20016000       0.80712000       0.91881900
   122  C          0.29984000       0.19288000       0.41881900
   123  C          0.79984000       0.30712000       0.58118100
   124  C          0.70016000       0.69288000       0.08118100
   125  H          0.31994800       0.85053400       0.92004600
   126  H          0.18005200       0.14946600       0.42004600
   127  H          0.68005200       0.35053400       0.57995400
   128  H          0.81994800       0.64946600       0.07995400
   129  C          0.87644000       0.74513000       0.94942800
   130  C          0.62356000       0.25487000       0.44942800
   131  C          0.12356000       0.24513000       0.55057200
   132  C          0.37644000       0.75487000       0.05057200
   133  H          0.76340300       0.74178200       0.97191400
   134  H          0.73659700       0.25821800       0.47191400
   135  H          0.23659700       0.24178200       0.52808600
   136  H          0.26340300       0.75821800       0.02808600
   137  C          0.86405000       0.68592000       0.91422800
   138  C          0.63595000       0.31408000       0.41422800
   139  C          0.13595000       0.18592000       0.58577200
   140  C          0.36405000       0.81408000       0.08577200
   141  C          0.22826000       0.54990180       0.85153800
   142  C          0.27174000       0.45009820       0.35153800
   143  C          0.77174000       0.04990180       0.64846200
   144  C          0.72826000       0.95009820       0.14846200
   145  H          0.22920300       0.50539200       0.82800100
   146  H          0.27079700       0.49460800       0.32800100
   147  H          0.77079700       0.00539200       0.67199900
   148  H          0.72920300      -0.00539200       0.17199900
   149  H          0.19736000       0.52017800       0.87949700
   150  H          0.30264000       0.47982200       0.37949700
   151  H          0.80264000       0.02017800       0.62050300
   152  H          0.69736000       0.97982200       0.12050300
   153  H          0.37920000       0.57976100       0.85280200
   154  H          0.12080000       0.42023900       0.35280200
   155  H          0.62080000       0.07976100       0.64719800
   156  H          0.87920000       0.92023900       0.14719800
   157  O          0.02305000       0.30857190       0.08944800
   158  O          0.47695000       0.69142810       0.58944800
   159  O         -0.02305000       0.80857190       0.41055200
   160  O          0.52305000       0.19142810       0.91055200
   161  O          0.74924000       0.37812000       0.12520700
   162  O          0.75076000       0.62188000       0.62520700
   163  O          0.25076000       0.87812000       0.37479300
   164  O          0.24924000       0.12188000       0.87479300
   165  O          0.13496000       0.53609170       0.04495800
   166  O          0.36504000       0.46390830       0.54495800
   167  O          0.86504000       0.03609170       0.45504200
   168  O          0.63496000       0.96390830       0.95504200
   169  O          0.17215000       0.55692000       0.97465800
   170  O          0.32785000       0.44308000       0.47465800
   171  O          0.82785000       0.05692000       0.52534200
   172  O          0.67215000       0.94308000       0.02534200
   173  O          0.76066000       0.38589140       0.89034600
   174  O          0.73934000       0.61410860       0.39034600
   175  O          0.23934000       0.88589140       0.60965400
   176  O          0.26066000       0.11410860       0.10965400
   177  H          0.83810000       0.36930000       0.86521500
   178  H          0.66190000       0.63070000       0.36521500
   179  H          0.16190000       0.86930000       0.63478500
   180  H          0.33810000       0.13070000       0.13478500
   181  O          0.05444000       0.31811190       0.92737700
   182  O          0.44556000       0.68188810       0.42737700
   183  O          0.94556000       0.81811190       0.57262300
   184  O          0.55444000       0.18188810       0.07262300
   185  N          0.84125000       0.35333180       0.09075700
   186  N          0.65875000       0.64666820       0.59075700
   187  N          0.15875000       0.85333180       0.40924300
   188  N          0.34125000       0.14666820       0.90924300
   189  N          0.23396000       0.52296160       0.00956800
   190  N          0.26604000       0.47703840       0.50956800
   191  N          0.76604000       0.02296160       0.49043200
   192  N          0.73396000       0.97703840       0.99043200
   193  C          0.73245000       0.38032160       0.04827700
   194  C          0.76755000       0.61967840       0.54827700
   195  C          0.26755000       0.88032160       0.45172300
   196  C          0.23245000       0.11967840       0.95172300
   197  C          0.53285000       0.43475170       0.04973700
   198  C          0.96715000       0.56524830       0.54973700
   199  C          0.46715000       0.93475170       0.45026300
   200  C          0.03285000       0.06524830       0.95026300
   201  H          0.46312100       0.45156400       0.07662000
   202  H          0.03687900       0.54843600       0.57662000
   203  H          0.53687900       0.95156400       0.42338000
   204  H          0.96312100       0.04843600       0.92338000
   205  C          0.44256000       0.46287160       0.00914800
   206  C          0.05744000       0.53712840       0.50914800
   207  C          0.55744000       0.96287160       0.49085200
   208  C          0.94256000       0.03712840       0.99085200
   209  C          0.54096000       0.43856160       0.96868700
   210  C          0.95904000       0.56143840       0.46868700
   211  C          0.45904000       0.93856160       0.53131300
   212  C          0.04096000       0.06143840       0.03131300
   213  H          0.47468100       0.45841000       0.94196800
   214  H          0.02531900       0.54159000       0.44196800
   215  H          0.52531900       0.95841000       0.55803200
   216  H          0.97468100       0.04159000       0.05803200
   217  C          0.74145000       0.38369160       0.96883700
   218  C          0.75855000       0.61630840       0.46883700
   219  C          0.25855000       0.88369160       0.53116300
   220  C          0.24145000       0.11630840       0.03116300
   221  C          0.83636000       0.35410160       0.00876800
   222  C          0.66364000       0.64589840       0.50876800
   223  C          0.16364000       0.85410160       0.49123200
   224  C          0.33636000       0.14589840       0.99123200
   225  H          0.96945500       0.31676500       0.00895400
   226  H          0.53054500       0.68323500       0.50895400
   227  H          0.03054500       0.81676500       0.49104600
   228  H          0.46945500       0.18323500       0.99104600
   229  C          0.86775000       0.35862190       0.92641800
   230  C          0.63225000       0.64137810       0.42641800
   231  C          0.13225000       0.85862190       0.57358200
   232  C          0.36775000       0.14137810       0.07358200
