data_IGARIR
_symmetry_space_group_name_H-M    'P1'
_symmetry_Int_Tables_number       1
loop_
_symmetry_equiv_pos_site_id
_symmetry_equiv_pos_as_xyz
1 x,y,z
_cell_length_a                   9.78661
_cell_length_b                   14.175214
_cell_length_c                   17.651618
_cell_angle_alpha                90.0
_cell_angle_beta                 95.8813
_cell_angle_gamma                90.0
loop_
_atom_site_label
_atom_site_type_symbol
_atom_site_fract_x
_atom_site_fract_y
_atom_site_fract_z
     1  S          0.52597500       0.96385300       0.10801300
     2  S          0.97402500       0.46385300       0.39198700
     3  S          0.47402500       0.03614700       0.89198700
     4  S          0.02597500       0.53614700       0.60801300
     5  S          0.61755500       0.07796300       0.06218300
     6  S          0.88244500       0.57796300       0.43781700
     7  S          0.38244500       0.92203700       0.93781700
     8  S          0.11755500       0.42203700       0.56218300
     9  S          0.90654500       0.19649400       0.41464300
    10  S          0.59345500       0.69649400       0.08535700
    11  S          0.09345500       0.80350600       0.58535700
    12  S          0.40654500       0.30350600       0.91464300
    13  S         -0.00251500       0.06889400       0.41490300
    14  S          0.50251500       0.56889400       0.08509700
    15  S          0.00251500       0.93110600       0.58509700
    16  S          0.49748500       0.43110600       0.91490300
    17  C          0.08250190       0.18238130       0.32343100
    18  C          0.41749810       0.68238130       0.17656900
    19  C          0.91749810       0.81761870       0.67656900
    20  C          0.58250190       0.31761870       0.82343100
    21  N          0.52590160       0.15495110       0.10084900
    22  N          0.97409840       0.65495110       0.39915100
    23  N          0.47409840       0.84504890       0.89915100
    24  N          0.02590160       0.34504890       0.60084900
    25  C          0.25735180       0.15224140       0.23385100
    26  C          0.24264820       0.65224140       0.26614900
    27  C          0.74264820       0.84775860       0.76614900
    28  C          0.75735180       0.34775860       0.73385100
    29  H          0.26152000       0.08771400       0.24964000
    30  H          0.23848000       0.58771400       0.25036000
    31  H          0.73848000       0.91228600       0.75036000
    32  H          0.76152000       0.41228600       0.74964000
    33  C          0.33992180       0.18434130       0.17929100
    34  C          0.16007820       0.68434130       0.32070900
    35  C          0.66007820       0.81565870       0.82070900
    36  C          0.83992180       0.31565870       0.67929100
    37  N         -0.00921170       0.24057120       0.35065100
    38  N          0.50921170       0.74057120       0.14934900
    39  N          0.00921170       0.75942880       0.64934900
    40  N          0.49078830       0.25942880       0.85065100
    41  C          0.43257180       0.11886130       0.14395100
    42  C          0.06742820       0.61886130       0.35604900
    43  C          0.56742820       0.88113870       0.85604900
    44  C          0.93257180       0.38113870       0.64395100
    45  N          0.42255160       0.02583110       0.15432900
    46  N          0.07744840       0.52583110       0.34567100
    47  N          0.57744840       0.97416890       0.84567100
    48  N          0.92255160       0.47416890       0.65432900
    49  C          0.33202000       0.27790150       0.15619120
    50  C          0.16798000       0.77790150       0.34380880
    51  C          0.66798000       0.72209850       0.84380880
    52  C          0.83202000       0.22209850       0.65619120
    53  H          0.38511400       0.29886000       0.12029000
    54  H          0.11488600       0.79886000       0.37971000
    55  H          0.61488600       0.70114000       0.87971000
    56  H          0.88511400       0.20114000       0.62029000
    57  N          0.09551160       0.09410110       0.35109900
    58  N          0.40448840       0.59410110       0.14890100
    59  N          0.90448840       0.90589890       0.64890100
    60  N          0.59551160       0.40589890       0.85109900
    61  C          0.16884190       0.21481130       0.26514100
    62  C          0.33115810       0.71481130       0.23485900
    63  C          0.83115810       0.78518870       0.73485900
    64  C          0.66884190       0.28518870       0.76514100
    65  C          0.16252000       0.30856150       0.24196120
    66  C          0.33748000       0.80856150       0.25803880
    67  C          0.83748000       0.69143850       0.75803880
    68  C          0.66252000       0.19143850       0.74196120
    69  H          0.10521500       0.34921100       0.26256000
    70  H          0.39478500       0.84921100       0.23744000
    71  H          0.89478500       0.65078900       0.73744000
    72  H          0.60521500       0.15078900       0.76256000
    73  C          0.24403000       0.33952170       0.18747130
    74  C          0.25597000       0.83952170       0.31252870
    75  C          0.75597000       0.66047830       0.81252870
    76  C          0.74403000       0.16047830       0.68747130
    77  H          0.23953000       0.40371800       0.17145000
    78  H          0.26047000       0.90371800       0.32855000
    79  H          0.76047000       0.59628200       0.82855000
    80  H          0.73953000       0.09628200       0.67145000
    81  S          0.59669500       0.90072400       0.56351700
    82  S          0.90330500       0.40072400       0.93648300
    83  S          0.40330500       0.09927600       0.43648300
    84  S          0.09669500       0.59927600       0.06351700
    85  S          0.87767500       0.01921400       0.91311700
    86  S          0.62232500       0.51921400       0.58688300
    87  S          0.12232500       0.98078600       0.08688300
    88  S          0.37767500       0.48078600       0.41311700
    89  S          0.98423500       0.89418400       0.92499700
    90  S          0.51576500       0.39418400       0.57500300
    91  S          0.01576500       0.10581600       0.07500300
    92  S          0.48423500       0.60581600       0.42499700
    93  S          0.50515500       0.78741400       0.60524700
    94  S         -0.00515500       0.28741400       0.89475300
    95  S          0.49484500       0.21258600       0.39475300
    96  S          0.00515500       0.71258600       0.10524700
    97  N          0.40555160       0.84647120       0.65388100
    98  N          0.09444840       0.34647120       0.84611900
    99  N          0.59444840       0.15352880       0.34611900
   100  N          0.90555160       0.65352880       0.15388100
   101  N          0.08174160       0.91686120       0.85854100
   102  N          0.41825840       0.41686120       0.64145900
   103  N          0.91825840       0.08313880       0.14145900
   104  N          0.58174160       0.58313880       0.35854100
   105  C          0.06107190       0.00178140       0.82623900
   106  C          0.43892810       0.50178140       0.67376100
   107  C          0.93892810      -0.00178140       0.17376100
   108  C          0.56107190       0.49821860       0.32623900
   109  N          0.51038170       0.97618110       0.60519100
   110  N         -0.01038170       0.47618110       0.89480900
   111  N          0.48961830       0.02381890       0.39480900
   112  N          0.01038170       0.52381890       0.10519100
   113  C          0.41672180       0.94037130       0.64783900
   114  C          0.08327820       0.44037130       0.85216100
   115  C          0.58327820       0.05962870       0.35216100
   116  C          0.91672180       0.55962870       0.14783900
   117  C          0.32406190       0.00473140       0.68370900
   118  C          0.17593810       0.50473140       0.81629100
   119  C          0.67593810      -0.00473140       0.31629100
   120  C          0.82406190       0.49526860       0.18370900
   121  N          0.96203160       0.05936120       0.84635100
   122  N          0.53796840       0.55936120       0.65364900
   123  N          0.03796840       0.94063880       0.15364900
   124  N          0.46203160       0.44063880       0.34635100
   125  C          0.24104190       0.97216140       0.73788900
   126  C          0.25895810       0.47216140       0.76211100
   127  C          0.75895810       0.02783860       0.26211100
   128  C          0.74104190       0.52783860       0.23788900
   129  H          0.24692000       0.91061500       0.75376000
   130  H          0.25308000       0.41061500       0.74624000
   131  H          0.75308000       0.08938500       0.24624000
   132  H          0.74692000       0.58938500       0.25376000
   133  C          0.14920190       0.03378140       0.76760900
   134  C          0.35079810       0.53378140       0.73239100
   135  C          0.85079810       0.96621860       0.23239100
   136  C          0.64920190       0.46621860       0.26760900
   137  C          0.14122000       0.12654160       0.74274880
   138  C          0.35878000       0.62654160       0.75725120
   139  C          0.85878000       0.87345840       0.25725120
   140  C          0.64122000       0.37345840       0.24274880
   141  H          0.07801600       0.16881100       0.76295000
   142  H          0.42198400       0.66881100       0.73705000
   143  H          0.92198400       0.83118900       0.23705000
   144  H          0.57801600       0.33118900       0.26295000
   145  C          0.31512000       0.09798150       0.65937880
   146  C          0.18488000       0.59798150       0.84062120
   147  C          0.68488000       0.90201850       0.34062120
   148  C          0.81512000       0.40201850       0.15937880
   149  H          0.37241400       0.12026000       0.62201000
   150  H          0.12758600       0.62026000       0.87799000
   151  H          0.62758600       0.87974000       0.37799000
   152  H          0.87241400       0.37974000       0.12201000
   153  C          0.22383000       0.15875170       0.68882860
   154  C          0.27617000       0.65875170       0.81117140
   155  C          0.77617000       0.84124830       0.31117140
   156  C          0.72383000       0.34124830       0.18882860
   157  H          0.21743000       0.22331800       0.67195000
   158  H          0.28257000       0.72331800       0.82805000
   159  H          0.78257000       0.77668200       0.32805000
   160  H          0.71743000       0.27668200       0.17195000
   161  Cl         0.77637500       0.06568400       0.50945300
   162  Cl         0.72362500       0.56568400       0.99054700
   163  Cl         0.22362500       0.93431600       0.49054700
   164  Cl         0.27637500       0.43431600       0.00945300
   165  Cl         0.75748500       0.89131400       0.02823300
   166  Cl         0.74251500       0.39131400       0.47176700
   167  Cl         0.24251500       0.10868600       0.97176700
   168  Cl         0.25748500       0.60868600       0.52823300
   169  Cl         0.72904600       0.73899400       0.51784600
   170  Cl         0.77095400       0.23899400       0.98215400
   171  Cl         0.27095400       0.26100600       0.48215400
   172  Cl         0.22904600       0.76100600       0.01784600
