data_IGITUR
_symmetry_space_group_name_H-M    'P1'
_symmetry_Int_Tables_number       1
loop_
_symmetry_equiv_pos_site_id
_symmetry_equiv_pos_as_xyz
1 x,y,z
_cell_length_a                   7.80502
_cell_length_b                   13.45255
_cell_length_c                   16.76066
_cell_angle_alpha                80.7763
_cell_angle_beta                 81.8302
_cell_angle_gamma                83.9552
loop_
_atom_site_label
_atom_site_type_symbol
_atom_site_fract_x
_atom_site_fract_y
_atom_site_fract_z
     1  N          0.71073000       0.62433180       0.67823170
     2  N          0.21383000       0.06864160       0.71978170
     3  N          0.20613000       0.78246150       0.67089140
     4  N          0.72723000       0.24434170       0.72646180
     5  C          0.56423000       0.61532150       0.68392130
     6  C          0.38273000       0.61036150       0.68900120
     7  C          0.30183000       0.51882140       0.69700110
     8  C          0.39973000       0.42312150       0.70305120
     9  H          0.51949100       0.42000900       0.70220500
    10  C          0.32053000       0.33575150       0.71010130
    11  H          0.38784400       0.27429600       0.71355600
    12  C          0.13853000       0.33646140       0.71226110
    13  C          0.05533000       0.24582140       0.71984120
    14  C          0.14653000       0.14903160       0.72011140
    15  C          0.28533000       0.70489150       0.67910120
    16  C          0.11953000       0.51974150       0.69752130
    17  H          0.05219800       0.58119700       0.69254400
    18  C          0.04143000       0.43219150       0.70517120
    19  H          0.92169100       0.43515200       0.70578300
    20  C          0.87443000       0.24652150       0.72378140
    21  N          0.73103000       0.58852000       0.88722000
    22  N          0.31424000       0.03206180       0.91443180
    23  N          0.22103000       0.73999160       0.88293140
    24  N          0.78817000       0.18003190       0.93670150
    25  C          0.58673000       0.57818180       0.88801170
    26  C          0.40713000       0.57020160       0.88786130
    27  C          0.33513000       0.47751150       0.89420110
    28  C          0.44193000       0.38392160       0.89880130
    29  H          0.56109400       0.38424200       0.89836500
    30  C          0.37173000       0.29510150       0.90377130
    31  H          0.44443700       0.23563200       0.90576400
    32  C          0.18883000       0.28973150       0.90607110
    33  C          0.11603000       0.19703150       0.91314120
    34  C          0.22423000       0.10495170       0.91419140
    35  C          0.30223000       0.66359160       0.88516130
    36  C          0.15313000       0.47299160       0.89650120
    37  H          0.08070300       0.53259800       0.89371000
    38  C          0.08293000       0.38321150       0.90271120
    39  H          0.96324400       0.38274100       0.90481800
    40  C          0.93447000       0.18854170       0.92581130
    41  N          0.37213000       0.24912000       0.51162000
    42  N          0.73186000       0.79502000       0.46053000
    43  N          0.90537000       0.08748180       0.54639170
    44  N          0.28777000       0.62232000       0.47961170
    45  C          0.22463000       0.25398180       0.51630150
    46  C          0.03863000       0.25836160       0.52249130
    47  C          0.93467000       0.34780170       0.51449120
    48  C          0.00703000       0.44417170       0.50311130
    49  H          0.12603100       0.44601100       0.50241900
    50  C          0.90577000       0.53146160       0.49346130
    51  H          0.95525100       0.59265900       0.48684000
    52  C          0.72097000       0.53100170       0.49329120
    53  C          0.61697000       0.61958190       0.48096130
    54  C          0.68276000       0.71700190       0.46914180
    55  C          0.96637000       0.16281170       0.53539140
    56  C          0.74977000       0.34768180       0.51730140
    57  H          0.69970600       0.28645000       0.52656800
    58  C          0.64817000       0.43450180       0.50677130
    59  H          0.52908700       0.43243300       0.50819000
    60  C          0.43417000       0.62075180       0.47983140
    61  N          0.56693000       0.75293180       0.27672000
    62  N          0.08543000       0.21394150       0.33370140
    63  N          0.07513000       0.92789160       0.27467150
    64  N          0.58767000       0.37884190       0.31381180
    65  C          0.41983000       0.75177160       0.27642150
    66  C          0.23863000       0.75205150       0.27558120
    67  C          0.15803000       0.66100140       0.28188110
    68  C          0.25643000       0.56546150       0.28976120
    69  H          0.37573200       0.56287700       0.29031500
    70  C          0.17943000       0.47795150       0.29651120
    71  H          0.24702100       0.41661500       0.30169500
    72  C         -0.00302000       0.47855140       0.29577110
    73  C          0.91597000       0.38728150       0.30552120
    74  C          0.14603000       0.84820160       0.27401130
    75  C          0.97657000       0.66162140       0.28125120
    76  H          0.90866600       0.72285200       0.27644300
    77  C          0.89997000       0.57328150       0.28764120
    78  H          0.78081300       0.57580300       0.28658100
    79  C          0.73457000       0.38431150       0.30930140
    80  C          0.01053000       0.29179150       0.32013130
    81  N          0.50273000       0.81882000       0.06375150
    82  N          0.07273000       0.25672160       0.11413150
    83  N          0.97466000       0.96474180       0.08372170
    84  N          0.56366000       0.40932000       0.10362000
    85  C          0.35503000       0.80990170       0.07348130
    86  C          0.17353000       0.80083150       0.08446120
    87  C          0.10203000       0.70702150       0.09033110
    88  C          0.20913000       0.61447150       0.09340120
    89  H          0.32844500       0.61541700       0.09190800
    90  C          0.14003000       0.52465150       0.09848120
    91  H          0.21306600       0.46528100       0.10095600
    92  C          0.95817000       0.51952160       0.10010120
    93  C          0.88737000       0.42627160       0.10601130
    94  C         -0.00853000       0.33321160       0.11010130
    95  C          0.06583000       0.89191160       0.08354140
    96  C          0.91997000       0.70253160       0.09186120
    97  H          0.84684500       0.76184900       0.09016900
    98  C          0.85157000       0.61245160       0.09576130
    99  H          0.73269100       0.61165500       0.09559600
   100  C          0.70836000       0.41873190       0.10410170
   101  N          0.77422000       0.90249140       0.84183110
   102  N          0.64372000       0.91758130       0.70919100
   103  C          0.74044000       0.01108180       0.80727160
   104  H          0.84960600       0.04182900       0.79229900
   105  H          0.67015900       0.04672000       0.84806000
   106  C          0.64703000       0.02013160       0.73308150
   107  H          0.52906200       0.04967800       0.74503300
   108  H          0.70583100       0.06409000       0.68830900
   109  C          0.89594000       0.85053000       0.78067160
   110  H          0.90891800       0.77851700       0.79991200
   111  H          0.00929100       0.87629300       0.77419600
   112  C          0.82523000       0.86878180       0.69937140
   113  H          0.89830500       0.91215500       0.66001500
   114  H          0.82600800       0.80504000       0.67918700
   115  C          0.60573000       0.85378170       0.85633140
   116  H          0.52167300       0.88986000       0.89216000
   117  H          0.62394300       0.78453600       0.88266300
   118  C          0.53613000       0.85524180       0.77609150
   119  H          0.53985100       0.78680100       0.76408200
   120  H          0.41618100       0.88355800       0.77994900
   121  C          0.85184000       0.89423000       0.91973160
   122  H          0.87311200       0.82422600       0.94153800
   123  H          0.95926400       0.92558200       0.90920300
   124  H          0.77266600       0.92751500       0.95832000
   125  C          0.56654000       0.92702000       0.63069150
   126  H          0.45012900       0.95841800       0.63765800
   127  H          0.63552700       0.96763600       0.58833700
   128  H          0.56457000       0.86108400       0.61602600
   129  N          0.64552000       0.08393130       0.29391110
   130  N          0.51632000       0.09330140       0.16144110
   131  C          0.46733000       0.13950180       0.30030140
   132  H          0.47484300       0.20740000       0.31136800
   133  H          0.39223100       0.10486100       0.34490800
   134  C          0.39214000       0.14433000       0.22140170
   135  H          0.28433600       0.11169300       0.23205200
   136  H          0.36622000       0.21435200       0.19868400
   137  C          0.75963000       0.13872000       0.22413150
   138  H          0.87484300       0.10360000       0.21934300
   139  H          0.76999800       0.20657800       0.23451100
   140  C          0.68284000       0.14378180       0.14577150
   141  H          0.66073100       0.21386300       0.12212200
   142  H          0.76474100       0.11061000       0.10720500
   143  C          0.63183000       0.98005830       0.27626160
   144  H          0.55850800       0.94357300       0.32054600
   145  H          0.74607100       0.94370100       0.27189600
   146  C          0.55534000       0.98591820       0.19729160
   147  H          0.63680500       0.95216100       0.15893700
   148  H          0.44939000       0.95154300       0.20760400
   149  C          0.72124000       0.07872000       0.37166160
   150  H          0.72943300       0.14587600       0.38239900
   151  H          0.64790300       0.04327800       0.41559400
   152  H          0.83491800       0.04347700       0.36693000
   153  C          0.43854000       0.09793000       0.08394170
   154  H          0.41375600       0.16722900       0.06119700
   155  H          0.51911500       0.06478400       0.04576000
   156  H          0.33293200       0.06462400       0.09526900
   157  N          0.36375000       0.96064000       0.46823000
   158  C          0.24594000       0.91733000       0.47495190
   159  C          0.09265000       0.86243000       0.48403190
   160  H          0.06660000       0.81630000       0.53471800
   161  H         -0.00850000       0.91230000       0.49230000
   162  H          0.10370000       0.81130000       0.44820000
