data_IGIVAZ
_symmetry_space_group_name_H-M    'P1'
_symmetry_Int_Tables_number       1
loop_
_symmetry_equiv_pos_site_id
_symmetry_equiv_pos_as_xyz
1 x,y,z
_cell_length_a                   8.11933
_cell_length_b                   13.54675
_cell_length_c                   19.05889
_cell_angle_alpha                90.0
_cell_angle_beta                 99.5934
_cell_angle_gamma                90.0
loop_
_atom_site_label
_atom_site_type_symbol
_atom_site_fract_x
_atom_site_fract_y
_atom_site_fract_z
     1  C          0.89911400       0.63986000       0.50165000
     2  C          0.10088600       0.63986000      -0.00165000
     3  C          0.39911400       0.13986000       0.50165000
     4  C          0.60088600       0.13986000      -0.00165000
     5  C          0.10088600       0.36014000       0.49835000
     6  C          0.89911400       0.36014000       0.00165000
     7  C          0.60088600       0.86014000       0.49835000
     8  C          0.39911400       0.86014000       0.00165000
     9  C          0.82791200       0.57096000       0.54535000
    10  C          0.17208800       0.57096000       0.95465000
    11  C          0.32791200       0.07096000       0.54535000
    12  C          0.67208800       0.07096000       0.95465000
    13  C          0.17208800       0.42904000       0.45465000
    14  C          0.82791200       0.42904000       0.04535000
    15  C          0.67208800       0.92904000       0.45465000
    16  C          0.32791200       0.92904000       0.04535000
    17  C          0.66381000       0.53475000       0.52133000
    18  C          0.33619000       0.53475000       0.97867000
    19  C          0.16381000       0.03475000       0.52133000
    20  C          0.83619000       0.03475000       0.97867000
    21  C          0.33619000       0.46525000       0.47867000
    22  C          0.66381000       0.46525000       0.02133000
    23  C          0.83619000       0.96525000       0.47867000
    24  C          0.16381000       0.96525000       0.02133000
    25  C          0.56631100       0.56875000       0.45904000
    26  C          0.43368900       0.56875000       0.04096000
    27  C          0.06631100       0.06875000       0.45904000
    28  C          0.93368900       0.06875000       0.04096000
    29  C          0.43368900       0.43125000       0.54096000
    30  C          0.56631100       0.43125000       0.95904000
    31  C          0.93368900       0.93125000       0.54096000
    32  C          0.06631100       0.93125000       0.95904000
    33  H          0.61084000       0.61454200       0.43101400
    34  H          0.38916000       0.61454200       0.06898600
    35  H          0.11084000       0.11454200       0.43101400
    36  H          0.88916000       0.11454200       0.06898600
    37  H          0.38916000       0.38545800       0.56898600
    38  H          0.61084000       0.38545800       0.93101400
    39  H          0.88916000       0.88545800       0.56898600
    40  H          0.11084000       0.88545800       0.93101400
    41  C          0.40801100       0.53656000       0.43824000
    42  C          0.59198900       0.53656000       0.06176000
    43  C          0.90801100       0.03656000       0.43824000
    44  C          0.09198900       0.03656000       0.06176000
    45  C          0.59198900       0.46344000       0.56176000
    46  C          0.40801100       0.46344000       0.93824000
    47  C          0.09198900       0.96344000       0.56176000
    48  C          0.90801100       0.96344000       0.93824000
    49  H          0.34510300       0.56139900       0.39674700
    50  H          0.65489700       0.56139900       0.10325300
    51  H          0.84510300       0.06139900       0.39674700
    52  H          0.15489700       0.06139900       0.10325300
    53  H          0.65489700       0.43860100       0.60325300
    54  H          0.34510300       0.43860100       0.89674700
    55  H          0.15489700       0.93860100       0.60325300
    56  H          0.84510300       0.93860100       0.89674700
    57  C          0.91671500       0.54598000       0.60505000
    58  C          0.08328500       0.54598000       0.89495000
    59  C          0.41671500       0.04598000       0.60505000
    60  C          0.58328500       0.04598000       0.89495000
    61  C          0.08328500       0.45402000       0.39495000
    62  C          0.91671500       0.45402000       0.10505000
    63  C          0.58328500       0.95402000       0.39495000
    64  C          0.41671500       0.95402000       0.10505000
    65  N          0.95621400       0.69618000       0.46795000
    66  N          0.04378600       0.69618000       0.03205000
    67  N          0.45621400       0.19618000       0.46795000
    68  N          0.54378600       0.19618000       0.03205000
    69  N          0.04378600       0.30382000       0.53205000
    70  N          0.95621400       0.30382000       0.96795000
    71  N          0.54378600       0.80382000       0.53205000
    72  N          0.45621400       0.80382000       0.96795000
    73  N          0.97020000       0.52251200       0.65951400
    74  N          0.02980000       0.52251200       0.84048600
    75  N          0.47020000       0.02251200       0.65951400
    76  N          0.52980000       0.02251200       0.84048600
    77  N          0.02980000       0.47748800       0.34048600
    78  N          0.97020000       0.47748800       0.15951400
    79  N          0.52980000       0.97748800       0.34048600
    80  N          0.47020000       0.97748800       0.15951400
    81  C          0.32079000       0.35544000       0.24805000
    82  C          0.67921000       0.35544000       0.25195000
    83  C          0.82079000       0.85544000       0.24805000
    84  C          0.17921000       0.85544000       0.25195000
    85  C          0.67921000       0.64456000       0.75195000
    86  C          0.32079000       0.64456000       0.74805000
    87  C          0.17921000       0.14456000       0.75195000
    88  C          0.82079000       0.14456000       0.74805000
    89  H          0.21124000       0.37816300       0.24204500
    90  H          0.78876000       0.37816300       0.25795500
    91  H          0.71124000       0.87816300       0.24204500
    92  H          0.28876000       0.87816300       0.25795500
    93  H          0.78876000       0.62183700       0.75795500
    94  H          0.21124000       0.62183700       0.74204500
    95  H          0.28876000       0.12183700       0.75795500
    96  H          0.71124000       0.12183700       0.74204500
    97  C          0.44411200       0.36195000       0.31495000
    98  C          0.55588800       0.36195000       0.18505000
    99  C          0.94411200       0.86195000       0.31495000
   100  C          0.05588800       0.86195000       0.18505000
   101  C          0.55588800       0.63805000       0.68505000
   102  C          0.44411200       0.63805000       0.81495000
   103  C          0.05588800       0.13805000       0.68505000
   104  C          0.94411200       0.13805000       0.81495000
   105  H          0.42686200       0.39610300       0.35532800
   106  H          0.57313800       0.39610300       0.14467200
   107  H          0.92686200       0.89610300       0.35532800
   108  H          0.07313800       0.89610300       0.14467200
   109  H          0.57313800       0.60389700       0.64467200
   110  H          0.42686200       0.60389700       0.85532800
   111  H          0.07313800       0.10389700       0.64467200
   112  H          0.92686200       0.10389700       0.85532800
   113  C          0.44608000       0.20285000       0.21224000
   114  C          0.55392000       0.20285000       0.28776000
   115  C          0.94608000       0.70285000       0.21224000
   116  C          0.05392000       0.70285000       0.28776000
   117  C          0.55392000       0.79715000       0.78776000
   118  C          0.44608000       0.79715000       0.71224000
   119  C          0.05392000       0.29715000       0.78776000
   120  C          0.94608000       0.29715000       0.71224000
   121  H          0.41498800       0.14721900       0.18454600
   122  H          0.58501200       0.14721900       0.31545400
   123  H          0.91498800       0.64721900       0.18454600
   124  H          0.08501200       0.64721900       0.31545400
   125  H          0.58501200       0.85278100       0.81545400
   126  H          0.41498800       0.85278100       0.68454600
   127  H          0.08501200       0.35278100       0.81545400
   128  H          0.91498800       0.35278100       0.68454600
   129  C          0.27391300       0.30881000       0.12365000
   130  C          0.72608700       0.30881000       0.37635000
   131  C          0.77391300       0.80881000       0.12365000
   132  C          0.22608700       0.80881000       0.37635000
   133  C          0.72608700       0.69119000       0.87635000
   134  C          0.27391300       0.69119000       0.62365000
   135  C          0.22608700       0.19119000       0.87635000
   136  C          0.77391300       0.19119000       0.62365000
   137  H          0.24601100       0.37610300       0.11106900
   138  H          0.75398900       0.37610300       0.38893100
   139  H          0.74601100       0.87610300       0.11106900
   140  H          0.25398900       0.87610300       0.38893100
   141  H          0.75398900       0.62389700       0.88893100
   142  H          0.24601100       0.62389700       0.61106900
   143  H          0.25398900       0.12389700       0.88893100
   144  H          0.74601100       0.12389700       0.61106900
   145  H          0.32027400       0.27791500       0.08597900
   146  H          0.67972600       0.27791500       0.41402100
   147  H          0.82027400       0.77791500       0.08597900
   148  H          0.17972600       0.77791500       0.41402100
   149  H          0.67972600       0.72208500       0.91402100
   150  H          0.32027400       0.72208500       0.58597900
   151  H          0.17972600       0.22208500       0.91402100
   152  H          0.82027400       0.22208500       0.58597900
   153  H          0.17494900       0.27402000       0.13072200
   154  H          0.82505100       0.27402000       0.36927800
   155  H          0.67494900       0.77402000       0.13072200
   156  H          0.32505100       0.77402000       0.36927800
   157  H          0.82505100       0.72598000       0.86927800
   158  H          0.17494900       0.72598000       0.63072200
   159  H          0.32505100       0.22598000       0.86927800
   160  H          0.67494900       0.22598000       0.63072200
   161  N          0.40076000       0.30624000       0.19163000
   162  N          0.59924000       0.30624000       0.30837000
   163  N          0.90076000       0.80624000       0.19163000
   164  N          0.09924000       0.80624000       0.30837000
   165  N          0.59924000       0.69376000       0.80837000
   166  N          0.40076000       0.69376000       0.69163000
   167  N          0.09924000       0.19376000       0.80837000
   168  N          0.90076000       0.19376000       0.69163000
   169  I         -0.00000000       0.13666400       0.25000000
   170  I          0.50000000       0.63666400       0.25000000
   171  I         -0.00000000       0.86333600       0.75000000
   172  I          0.50000000       0.36333600       0.75000000
