data_IGIVED
_symmetry_space_group_name_H-M    'P1'
_symmetry_Int_Tables_number       1
loop_
_symmetry_equiv_pos_site_id
_symmetry_equiv_pos_as_xyz
1 x,y,z
_cell_length_a                   7.73553
_cell_length_b                   19.20048
_cell_length_c                   13.21236
_cell_angle_alpha                90.0
_cell_angle_beta                 91.8104
_cell_angle_gamma                90.0
loop_
_atom_site_label
_atom_site_type_symbol
_atom_site_fract_x
_atom_site_fract_y
_atom_site_fract_z
     1  N          0.08994000       0.33701180       0.15533000
     2  N          0.08994000       0.66298820       0.15533000
     3  N          0.58994000       0.83701180       0.15533000
     4  N          0.58994000       0.16298820       0.15533000
     5  N          0.56085000       0.32806180       0.70393000
     6  N          0.56085000       0.67193820       0.70393000
     7  N          0.06085000       0.82806180       0.70393000
     8  N          0.06085000       0.17193820       0.70393000
     9  N          0.60115000       0.31903000      -0.00783000
    10  N          0.60115000       0.68097000      -0.00783000
    11  N          0.10115000       0.81903000      -0.00783000
    12  N          0.10115000       0.18097000      -0.00783000
    13  N          0.07374000       0.33442180       0.53843000
    14  N          0.07374000       0.66557820       0.53843000
    15  N          0.57374000       0.83442180       0.53843000
    16  N          0.57374000       0.16557820       0.53843000
    17  C          0.94344000       0.33385150       0.16053000
    18  C          0.94344000       0.66614850       0.16053000
    19  C          0.44344000       0.83385150       0.16053000
    20  C          0.44344000       0.16614850       0.16053000
    21  C          0.75944000       0.33076130       0.16482000
    22  C          0.75944000       0.66923870       0.16482000
    23  C          0.25944000       0.83076130       0.16482000
    24  C          0.25944000       0.16923870       0.16482000
    25  C          0.67203000       0.33360110       0.25542000
    26  C          0.67203000       0.66639890       0.25542000
    27  C          0.17203000       0.83360110       0.25542000
    28  C          0.17203000       0.16639890       0.25542000
    29  C          0.76303000       0.33498130       0.35112000
    30  C          0.76303000       0.66501870       0.35112000
    31  C          0.26303000       0.83498130       0.35112000
    32  C          0.26303000       0.16501870       0.35112000
    33  H          0.88322500       0.33569200       0.35297500
    34  H          0.88322500       0.66430800       0.35297500
    35  H          0.38322500       0.83569200       0.35297500
    36  H          0.38322500       0.16430800       0.35297500
    37  C          0.67833000       0.33526120       0.43922000
    38  C          0.67833000       0.66473880       0.43922000
    39  C          0.17833000       0.83526120       0.43922000
    40  C          0.17833000       0.16473880       0.43922000
    41  H          0.74124100       0.33581800       0.50033100
    42  H          0.74124100       0.66418200       0.50033100
    43  H          0.24124100       0.83581800       0.50033100
    44  H          0.24124100       0.16418200       0.50033100
    45  C          0.49213000       0.33471100       0.43952000
    46  C          0.49213000       0.66528900       0.43952000
    47  C         -0.00787000       0.83471100       0.43952000
    48  C         -0.00787000       0.16528900       0.43952000
    49  C          0.40513000       0.33470120       0.52992000
    50  C          0.40513000       0.66529880       0.52992000
    51  C          0.90513000       0.83470120       0.52992000
    52  C          0.90513000       0.16529880       0.52992000
    53  C          0.49234000       0.33104140       0.62573000
    54  C          0.49234000       0.66895860       0.62573000
    55  C         -0.00766000       0.83104140       0.62573000
    56  C         -0.00766000       0.16895860       0.62573000
    57  C          0.67084000       0.32452000       0.06933000
    58  C          0.67084000       0.67548000       0.06933000
    59  C          0.17084000       0.82452000       0.06933000
    60  C          0.17084000       0.17548000       0.06933000
    61  C          0.48643000       0.33378120       0.25572000
    62  C          0.48643000       0.66621880       0.25572000
    63  C         -0.01357000       0.83378120       0.25572000
    64  C         -0.01357000       0.16621880       0.25572000
    65  H          0.42368400       0.33318100       0.19446400
    66  H          0.42368400       0.66681900       0.19446400
    67  H          0.92368400       0.83318100       0.19446400
    68  H          0.92368400       0.16681900       0.19446400
    69  C          0.40103000       0.33480120       0.34372000
    70  C          0.40103000       0.66519880       0.34372000
    71  C          0.90103000       0.83480120       0.34372000
    72  C          0.90103000       0.16519880       0.34372000
    73  H          0.28074600       0.33558100       0.34169200
    74  H          0.28074600       0.66441900       0.34169200
    75  H          0.78074600       0.83558100       0.34169200
    76  H          0.78074600       0.16441900       0.34169200
    77  C          0.22184000       0.33454130       0.53282000
    78  C          0.22184000       0.66545870       0.53282000
    79  C          0.72184000       0.83454130       0.53282000
    80  C          0.72184000       0.16545870       0.53282000
    81  N          0.94227000       0.50000000       0.25975000
    82  N          0.44227000      -0.00000000       0.25975000
    83  N          0.53746000       0.50000000       0.84453000
    84  N          0.03746000      -0.00000000       0.84453000
    85  N          0.42828000       0.50000000       0.12864000
    86  N          0.92828000      -0.00000000       0.12864000
    87  N          0.01316000       0.50000000       0.71054000
    88  N          0.51316000      -0.00000000       0.71054000
    89  C          0.79825000       0.50000000       0.27673000
    90  C          0.29825000      -0.00000000       0.27673000
    91  C          0.61675000       0.50000000       0.29173000
    92  C          0.11675000      -0.00000000       0.29173000
    93  C          0.54794000       0.50000000       0.38903000
    94  C          0.04794000      -0.00000000       0.38903000
    95  C          0.65624000       0.50000000       0.47833000
    96  C          0.15624000      -0.00000000       0.47833000
    97  H          0.77556900       0.50000000       0.47172600
    98  H          0.27556900      -0.00000000       0.47172600
    99  C          0.59105000       0.50000000       0.57283000
   100  C          0.09105000      -0.00000000       0.57283000
   101  H          0.66621600       0.50000000       0.62914600
   102  H          0.16621600      -0.00000000       0.62914600
   103  C          0.40875000       0.50000000       0.58663000
   104  C          0.90875000      -0.00000000       0.58663000
   105  C          0.34085000       0.50000000       0.68403000
   106  C          0.84085000      -0.00000000       0.68403000
   107  C          0.44926000       0.50000000       0.77253000
   108  C          0.94926000      -0.00000000       0.77253000
   109  C          0.51166000       0.50000000       0.20213000
   110  C          0.01166000      -0.00000000       0.20213000
   111  C          0.36475000       0.50000000       0.40263000
   112  C          0.86475000      -0.00000000       0.40263000
   113  H          0.28984500       0.50000000       0.34616900
   114  H          0.78984500      -0.00000000       0.34616900
   115  C          0.29874000       0.50000000       0.49713000
   116  C          0.79874000      -0.00000000       0.49713000
   117  H          0.17934000       0.50000000       0.50363600
   118  H          0.67934000      -0.00000000       0.50363600
   119  C          0.15976000       0.50000000       0.69863000
   120  C          0.65976000      -0.00000000       0.69863000
   121  N          0.03684000       0.56256150       0.94662000
   122  N          0.03684000       0.43743850       0.94662000
   123  N          0.53684000       0.06256150       0.94662000
   124  N          0.53684000       0.93743850       0.94662000
   125  C          0.00971400       0.50000000       0.00686000
   126  C          0.50971400      -0.00000000       0.00686000
   127  H          0.08926000       0.50000000       0.06502000
   128  H          0.58926000      -0.00000000       0.06502000
   129  H          0.89279400       0.50000000       0.03130100
   130  H          0.39279400      -0.00000000       0.03130100
   131  C          0.19695000       0.58987190       0.94493000
   132  C          0.19695000       0.41012810       0.94493000
   133  C          0.69695000       0.08987190       0.94493000
   134  C          0.69695000       0.91012810       0.94493000
   135  H          0.28547200       0.57050000       0.98502700
   136  H          0.28547200       0.42950000       0.98502700
   137  H          0.78547200       0.07050000       0.98502700
   138  H          0.78547200       0.92950000       0.98502700
   139  C          0.23025000       0.64572000       0.88504000
   140  C          0.23025000       0.35428000       0.88504000
   141  C          0.73025000       0.14572000       0.88504000
   142  C          0.73025000       0.85428000       0.88504000
   143  H          0.34205100       0.66305900       0.88114600
   144  H          0.34205100       0.33694100       0.88114600
   145  H          0.84205100       0.16305900       0.88114600
   146  H          0.84205100       0.83694100       0.88114600
   147  C          0.09928000       0.67535190       0.83145000
   148  C          0.09928000       0.32464810       0.83145000
   149  C          0.59928000       0.17535190       0.83145000
   150  C          0.59928000       0.82464810       0.83145000
   151  H          0.11981700       0.71541700       0.79415500
   152  H          0.11981700       0.28458300       0.79415500
   153  H          0.61981700       0.21541700       0.79415500
   154  H          0.61981700       0.78458300       0.79415500
   155  C          0.93703000       0.64792000       0.83075000
   156  C          0.93703000       0.35208000       0.83075000
   157  C          0.43703000       0.14792000       0.83075000
   158  C          0.43703000       0.85208000       0.83075000
   159  H          0.84887300       0.66730900       0.79033200
   160  H          0.84887300       0.33269100       0.79033200
   161  H          0.34887300       0.16730900       0.79033200
   162  H          0.34887300       0.83269100       0.79033200
   163  C          0.90615000       0.59152000       0.89014000
   164  C          0.90615000       0.40848000       0.89014000
   165  C          0.40615000       0.09152000       0.89014000
   166  C          0.40615000       0.90848000       0.89014000
   167  H          0.79538700       0.57289600       0.89194700
   168  H          0.79538700       0.42710400       0.89194700
   169  H          0.29538700       0.07289600       0.89194700
   170  H          0.29538700       0.92710400       0.89194700
