data_IGOGES
_symmetry_space_group_name_H-M    'P1'
_symmetry_Int_Tables_number       1
loop_
_symmetry_equiv_pos_site_id
_symmetry_equiv_pos_as_xyz
1 x,y,z
_cell_length_a                   7.3134
_cell_length_b                   11.1176
_cell_length_c                   12.0316
_cell_angle_alpha                96.1413
_cell_angle_beta                 100.8276
_cell_angle_gamma                107.5096
loop_
_atom_site_label
_atom_site_type_symbol
_atom_site_fract_x
_atom_site_fract_y
_atom_site_fract_z
     1  C          0.82327000       0.42060840       0.67785150
     2  C          0.17673000       0.57939160       0.32214850
     3  H          0.73360000       0.33900000       0.64810000
     4  H          0.26640000       0.66100000       0.35190000
     5  C          0.85898000       0.50896850       0.60636140
     6  C          0.14102000       0.49103150       0.39363860
     7  H          0.79180000       0.48750000       0.52950000
     8  H          0.20820000       0.51250000       0.47050000
     9  C         -0.00442000       0.63058870       0.64868120
    10  C          0.00442000       0.36941130       0.35131880
    11  C          0.09093000       0.65574850       0.76418140
    12  C          0.90907000       0.34425150       0.23581860
    13  H          0.18590000       0.73500000       0.79590000
    14  H          0.81410000       0.26500000       0.20410000
    15  C          0.04543000       0.56424840       0.83134140
    16  C          0.95457000       0.43575160       0.16865860
    17  H          0.10810000       0.58320000       0.90890000
    18  H          0.89190000       0.41680000       0.09110000
    19  C          0.03222000       0.72330860       0.57168130
    20  C          0.96778000       0.27669140       0.42831870
    21  H          0.95980000       0.69750000       0.49590000
    22  H          0.04020000       0.30250000       0.50410000
    23  C          0.16022000       0.84159860       0.60060130
    24  C          0.83978000       0.15840140       0.39939870
    25  H          0.23120000       0.86970000       0.67650000
    26  H          0.76880000       0.13030000       0.32350000
    27  C          0.19482000       0.92884870       0.52010120
    28  C          0.80518000       0.07115130       0.47989880
    29  C          0.31962000       0.10851140       0.45890130
    30  C          0.68038000       0.89148860       0.54109870
    31  C          0.41412000       0.23225150       0.44366150
    32  C          0.58588000       0.76774850       0.55633850
    33  H          0.48800000       0.29670000       0.50580000
    34  H          0.51200000       0.70330000       0.49420000
    35  C          0.39353000       0.25488170       0.33289160
    36  C          0.60647000       0.74511830       0.66710840
    37  H          0.45720000       0.33610000       0.31940000
    38  H          0.54280000       0.66390000       0.68060000
    39  C          0.27893000       0.15862170       0.23986150
    40  C          0.72107000       0.84137830       0.76013850
    41  H          0.26970000       0.17690000       0.16580000
    42  H          0.73030000       0.82310000       0.83420000
    43  C          0.17933000       0.03740160       0.25516130
    44  C          0.82067000       0.96259840       0.74483870
    45  H          0.10030000       0.97450000       0.19300000
    46  H          0.89970000       0.02550000       0.80700000
    47  C          0.20072000       0.01217130       0.36696120
    48  C          0.79928000      -0.01217130       0.63303880
    49  N          0.91378000       0.44890880       0.78845110
    50  N          0.08622000       0.55109120       0.21154890
    51  H          0.88740000       0.39280000       0.83220000
    52  H          0.11260000       0.60720000       0.16780000
    53  N          0.12190180       0.90056890       0.40731100
    54  N          0.87809820       0.09943110       0.59268900
    55  N          0.31414180       0.05250110       0.55490110
    56  N          0.68585820       0.94749890       0.44509890
    57  H          0.37500000       0.08890000       0.62430000
    58  H          0.62500000       0.91110000       0.37570000
    59  C          0.29032000       0.36121140       0.77165130
    60  C          0.70968000       0.63878860       0.22834870
    61  C          0.40012000       0.43024130       0.89083120
    62  C          0.59988000       0.56975870       0.10916880
    63  C          0.33832000       0.39116150       0.98711130
    64  C          0.66168000       0.60883850       0.01288870
    65  H          0.22980000       0.31810000       0.97900000
    66  H          0.77020000       0.68190000       0.02100000
    67  C          0.56222000       0.53928150       0.90477130
    68  C          0.43778000       0.46071850       0.09522870
    69  H          0.60460000       0.56600000       0.84050000
    70  H          0.39540000       0.43400000       0.15950000
    71  O          0.15201170       0.25306110       0.77170100
    72  O          0.84798830       0.74693890       0.22829900
    73  H          0.06430000       0.21320000       0.69720000
    74  H          0.93570000       0.78680000       0.30280000
    75  O          0.32229190       0.40322120       0.68624900
    76  O          0.67770810       0.59677880       0.31375100
    77  C          0.35252000       0.80904140       0.13589120
    78  C          0.64748000       0.19095860       0.86410880
    79  C          0.42752000       0.90756130       0.06458120
    80  C          0.57248000       0.09243870       0.93541880
    81  C          0.62872000       0.96917140       0.08268130
    82  C          0.37128000       0.03082860       0.91731870
    83  H          0.71560000       0.94860000       0.13830000
    84  H          0.28440000       0.05140000       0.86170000
    85  C          0.70092000       0.06078140       0.01883130
    86  C          0.29908000       0.93921860       0.98116870
    87  H          0.83610000       0.10160000       0.03160000
    88  H          0.16390000       0.89840000       0.96840000
    89  O          0.45078170       0.81113110       0.23112900
    90  O          0.54921830       0.18886890       0.76887100
    91  O          0.18326170       0.72490110       0.08941900
    92  O          0.81673830       0.27509890       0.91058100
