data_IGONIF
_symmetry_space_group_name_H-M    'P1'
_symmetry_Int_Tables_number       1
loop_
_symmetry_equiv_pos_site_id
_symmetry_equiv_pos_as_xyz
1 x,y,z
_cell_length_a                   5.515214
_cell_length_b                   8.4282
_cell_length_c                   26.5827
_cell_angle_alpha                93.5678
_cell_angle_beta                 90.2303
_cell_angle_gamma                90.1304
loop_
_atom_site_label
_atom_site_type_symbol
_atom_site_fract_x
_atom_site_fract_y
_atom_site_fract_z
     1  O         -0.02455000       0.14584000       0.34497110
     2  O          0.74956000       0.29734000       0.39759110
     3  N          0.36937000       0.45054000       0.16716130
     4  H          0.24496400       0.50921200       0.15912200
     5  C          0.53238000       0.38035000       0.13439160
     6  C          0.89718000       0.22115000       0.13831160
     7  H          0.01526500       0.16637000       0.15665000
     8  C          0.63898000       0.32275000       0.21492150
     9  C          0.70688000       0.30075000       0.16305150
    10  C          0.80219000       0.24575000       0.35457170
    11  C          0.78078000       0.26285000       0.25935150
    12  H          0.80669100       0.14698000       0.25343900
    13  H          0.94186800       0.31485300       0.26090700
    14  C          0.54559000       0.38245000       0.08179170
    15  H          0.42693200       0.43642200       0.06333200
    16  C          0.65618000       0.29386000       0.30939150
    17  H          0.50007600       0.23545400       0.30851600
    18  H          0.61909900       0.40869700       0.31398700
    19  C          0.43458000       0.41275000       0.21535170
    20  H          0.34741400       0.44544400       0.24494300
    21  C          0.73028000       0.30625000       0.05817170
    22  H          0.74210200       0.30664000       0.02254200
    23  C          0.91039000       0.22375000       0.08580160
    24  H          0.03929500       0.17052300       0.06824700
    25  H          0.06850000       0.12150000       0.37158000
    26  O          0.00136000       0.71034000       0.66094110
    27  H          0.07187500       0.68275700       0.63386100
    28  O          0.76666000       0.83954000       0.60853110
    29  N          0.43617000       0.08364000       0.84112140
    30  H          0.31407400       0.14542000       0.85056200
    31  C         -0.00462000       0.88805000       0.91960160
    32  H          0.12924400       0.84141300       0.93569200
    33  C          0.60868000       0.02555000       0.87288160
    34  C          0.69317000       0.93794000       0.79128140
    35  C          0.82248000       0.86075000       0.74730150
    36  H          0.84798300       0.74726900       0.75341200
    37  H         -0.01600000       0.91090100       0.74477500
    38  C          0.77158000       0.93495000       0.84342150
    39  C          0.82038000       0.80775000       0.65161160
    40  C          0.96898000       0.86565000       0.86733160
    41  H          0.08366900       0.80406400       0.84809500
    42  C          0.48629000       0.02855000       0.79149170
    43  H          0.39249200       0.05016500       0.76266700
    44  C          0.63199000       0.04695000       0.92574180
    45  H          0.51655000       0.10717500       0.94523800
    46  C          0.82919000       0.97706000       0.94839170
    47  H          0.85019100      -0.00967900       0.98389000
    48  C          0.69008000       0.87115000       0.69716150
    49  H          0.53417200       0.81323700       0.69906300
    50  H          0.65127200      -0.01588000       0.69285400
    51  O          0.12446000       0.19944000       0.69875120
    52  O          0.84394000       0.30634000       0.65078110
    53  H          0.91451300       0.25072400       0.62797100
    54  N          0.41877000       0.60084000       0.81640130
    55  H          0.53388100       0.66601000       0.80769300
    56  C          0.09728000       0.43305000       0.80949150
    57  C          0.18228000       0.44304000       0.86107150
    58  C          0.94152000       0.27935000       0.69498160
    59  C          0.38428000       0.54935000       0.86498160
    60  C          0.24198000       0.53275000       0.78387160
    61  H          0.22466700       0.55254300       0.74925200
    62  C          0.79812000       0.35725000       0.73682160
    63  H          0.62887500       0.31832900       0.73378900
    64  H          0.79577300       0.47304000       0.73259500
    65  C          0.10019000       0.37265000       0.90450160
    66  H          0.96268400       0.30423300       0.90361500
    67  C          0.88972000       0.32995000       0.78985160
    68  H          0.75228600       0.34569200       0.81343400
    69  H          0.94047500       0.21744800       0.79058200
    70  C          0.23229000       0.40856000       0.94963180
    71  H          0.18490100       0.36095700       0.97956300
    72  C          0.50969000       0.58446000       0.90972180
    73  H          0.64387600       0.65538400       0.91138100
    74  C          0.43089000       0.51235000       0.95108180
    75  H          0.51389400       0.53335800       0.98216400
    76  O          0.09216000       0.62184000       0.30658120
    77  O          0.82034000       0.74654000       0.35554110
    78  H          0.89078200       0.69646300       0.37771000
    79  N          0.36117000       0.97414000       0.18474140
    80  H          0.47716700       0.04389800       0.19176500
    81  C          0.04407000       0.81215000       0.19492160
    82  C          0.83362000       0.71505000       0.21479150
    83  H          0.88066700       0.60147400       0.21327300
    84  H          0.69164900       0.72513800       0.19235100
    85  C          0.30988000       0.90135000       0.13749170
    86  C          0.11048000       0.80115000       0.14238160
    87  C          0.91112000       0.70365000       0.31088150
    88  C          0.19758000       0.91735000       0.21885170
    89  H          0.19370000       0.94787600       0.25385000
    90  C          0.01759000       0.71215000       0.09905160
    91  H          0.88563600       0.64035600       0.10165000
    92  C          0.75912000       0.76575000       0.26909150
    93  H          0.76154200       0.88331600       0.27285700
    94  H          0.58956700       0.73120500       0.27386400
    95  C          0.12441000       0.73366000       0.05385180
    96  H          0.06220300       0.67781300       0.02440200
    97  C          0.32159000       0.83466000       0.04956180
    98  H          0.39039400       0.84598300       0.01728500
    99  C          0.42179000       0.92036000       0.09161180
   100  H          0.55866200      -0.01235800       0.08880900
   101  O          0.02276000       0.66014000       0.43710120
   102  N          0.23367000       0.58954000       0.58238130
   103  N          0.32477000       0.51454000       0.40241140
   104  H          0.27525300       0.53187400       0.37172400
   105  H          0.45377200       0.45568400       0.40684200
   106  C          0.16668000       0.61005000       0.53426160
   107  H          0.02546900       0.67041000       0.52810300
   108  C          0.30068000       0.54405000       0.49273150
   109  C          0.43549000       0.50416000       0.59079160
   110  H          0.48407200       0.49061200       0.62457800
   111  C          0.50448000       0.45845000       0.50207170
   112  H          0.59896300       0.41446800       0.47487800
   113  C          0.20638000       0.57625000       0.44147160
   114  C          0.57339000       0.43576000       0.55201160
   115  H          0.71227400       0.37431400       0.55900100
   116  O          0.03426000       0.18724000       0.56881120
   117  N          0.33887000       0.05645000       0.60366130
   118  H          0.29001500       0.08797200       0.63411800
   119  H          0.46766300      -0.00451500       0.59977100
   120  N          0.22047000       0.05714000       0.42360120
   121  C          0.29868000       0.04915000       0.51240150
   122  C          0.16328000       0.09555000       0.47117160
   123  H          0.02244600       0.15816300       0.47766500
   124  C          0.21778000       0.10065000       0.56343170
   125  C          0.42259000       0.96635000       0.41488170
   126  H          0.46537800       0.93654800       0.38103700
   127  C          0.50369000       0.95625000       0.50299160
   128  H          0.59821900       0.92089200       0.53002900
   129  C          0.56719000       0.91634000       0.45337160
   130  H          0.70860800       0.85544100       0.44593800
