data_IGUNII
_symmetry_space_group_name_H-M    'P1'
_symmetry_Int_Tables_number       1
loop_
_symmetry_equiv_pos_site_id
_symmetry_equiv_pos_as_xyz
1 x,y,z
_cell_length_a                   5.87291
_cell_length_b                   12.63702
_cell_length_c                   13.08672
_cell_angle_alpha                115.0221
_cell_angle_beta                 92.9281
_cell_angle_gamma                90.7961
loop_
_atom_site_label
_atom_site_type_symbol
_atom_site_fract_x
_atom_site_fract_y
_atom_site_fract_z
     1  C          0.32970190       0.28818110       0.54809100
     2  C          0.67029810       0.71181890       0.45190900
     3  H          0.46470000       0.32560000       0.54470000
     4  H          0.53530000       0.67440000       0.45530000
     5  C          0.26782000       0.18051110       0.46628100
     6  C          0.73218000       0.81948890       0.53371900
     7  H          0.36270000       0.14430000       0.40750000
     8  H          0.63730000       0.85570000       0.59250000
     9  C          0.05992000       0.12172110       0.46850100
    10  C          0.94008000       0.87827890       0.53149900
    11  H          0.02130000       0.04850000       0.41060000
    12  H         -0.02130000       0.95150000       0.58940000
    13  C          0.91648000       0.17091100       0.55395100
    14  C          0.08352000       0.82908900       0.44604900
    15  H          0.78160000       0.13200000       0.55490000
    16  H          0.21840000       0.86800000       0.44510000
    17  C         -0.02142190       0.28234100       0.64076100
    18  C          0.02142190       0.71765900       0.35923900
    19  C          0.18622190       0.34375100       0.63951100
    20  C          0.81377810       0.65624900       0.36048900
    21  C          0.10900190       0.50011100       0.80541100
    22  C          0.89099810       0.49988900       0.19458900
    23  C          0.16932000       0.61283110       0.89249100
    24  C          0.83068000       0.38716890       0.10750900
    25  H          0.30540000       0.65070000       0.89140000
    26  H          0.69460000       0.34930000       0.10860000
    27  C          0.02732000       0.66527110       0.97763100
    28  C          0.97268000       0.33472890       0.02236900
    29  H          0.06730000       0.73890000       0.03440000
    30  H          0.93270000       0.26110000       0.96560000
    31  C          0.81808000       0.60812110       0.98037100
    32  C          0.18192000       0.39187890       0.01962900
    33  H          0.72280000       0.64580000       0.03860000
    34  H          0.27720000       0.35420000       0.96140000
    35  C          0.75467810       0.49948110       0.89947100
    36  C          0.24532190       0.50051890       0.10052900
    37  H          0.61850000       0.46280000       0.90260000
    38  H          0.38150000       0.53720000       0.09740000
    39  C          0.90001810       0.44358100       0.81060100
    40  C          0.09998190       0.55641900       0.18939900
    41  N          0.84696840       0.33577900       0.72831800
    42  N          0.15303160       0.66422100       0.27168200
    43  H          0.72180000       0.29916000       0.73201100
    44  H          0.27820000       0.70084000       0.26798900
    45  N          0.24864160       0.44915900       0.72086800
    46  N          0.75135840       0.55084100       0.27913200
    47  C          0.49952000       0.06924110       0.85360110
    48  C          0.50048000       0.93075890       0.14639890
    49  O          0.44110170       0.04527900       0.64778800
    50  O          0.55889830       0.95472100       0.35221200
    51  O          0.50557150       0.24129800       0.79784800
    52  O          0.49442850       0.75870200       0.20215200
    53  O          0.14472150       0.13746800       0.77768800
    54  O          0.85527850       0.86253200       0.22231200
    55  F          0.72190140       0.05413800       0.84501800
    56  F          0.27809860       0.94586200       0.15498200
    57  F          0.39979160       0.96579300       0.83142800
    58  F          0.60020840       0.03420700       0.16857200
    59  F          0.46671170       0.14056800       0.96089700
    60  F          0.53328830       0.85943200       0.03910300
    61  S          0.38270500       0.12833300       0.75709200
    62  S          0.61729500       0.87166700       0.24290800
    63  C          0.22922000       0.28457120       0.24595110
    64  C          0.77078000       0.71542880       0.75404890
    65  H          0.32550000       0.24720000       0.18810000
    66  H          0.67450000       0.75280000       0.81190000
    67  C          0.29031190       0.39279110       0.32709100
    68  C          0.70968810       0.60720890       0.67290900
    69  H          0.42700000       0.42910000       0.32410000
    70  H          0.57300000       0.57090000       0.67590000
    71  C          0.14492190       0.45084110       0.41695100
    72  C          0.85507810       0.54915890       0.58304900
    73  C          0.06614190       0.60722110       0.58028100
    74  C          0.93385810       0.39277890       0.41971900
    75  C          0.12442000       0.72029110       0.66797110
    76  C          0.87558000       0.27970890       0.33202890
    77  H          0.26100000       0.75830000       0.66780000
    78  H          0.73900000       0.24170000       0.33220000
    79  C         -0.01932000       0.77274110       0.75195110
    80  C          0.01932000       0.22725890       0.24804890
    81  H          0.01950000       0.84670000       0.80850000
    82  H         -0.01950000       0.15330000       0.19150000
    83  N          0.20794160       0.55774900       0.49674900
    84  N          0.79205840       0.44225100       0.50325100
