data_IHATOE
_symmetry_space_group_name_H-M    'P1'
_symmetry_Int_Tables_number       1
loop_
_symmetry_equiv_pos_site_id
_symmetry_equiv_pos_as_xyz
1 x,y,z
_cell_length_a                   19.5166
_cell_length_b                   6.9902
_cell_length_c                   15.3235
_cell_angle_alpha                90.0
_cell_angle_beta                 96.902
_cell_angle_gamma                90.0
loop_
_atom_site_label
_atom_site_type_symbol
_atom_site_fract_x
_atom_site_fract_y
_atom_site_fract_z
     1  N          0.28992000       0.00897000       0.93197000
     2  N          0.71008000       0.50897000       0.56803000
     3  N          0.71008000      -0.00897000       0.06803000
     4  N          0.28992000       0.49103000       0.43197000
     5  C          0.33132000       0.08128000       0.87766000
     6  C          0.66868000       0.58128000       0.62234000
     7  C          0.66868000       0.91872000       0.12234000
     8  C          0.33132000       0.41872000       0.37766000
     9  C          0.45072000       0.20148000       0.85956000
    10  C          0.54928000       0.70148000       0.64044000
    11  C          0.54928000       0.79852000       0.14044000
    12  C          0.45072000       0.29852000       0.35956000
    13  N          0.23552000       0.96603000       0.87507000
    14  N          0.76448000       0.46603000       0.62493000
    15  N          0.76448000       0.03397000       0.12493000
    16  N          0.23552000       0.53397000       0.37507000
    17  H          0.19800300       0.91689200       0.89126100
    18  H          0.80199700       0.41689200       0.60873900
    19  H          0.80199700       0.08310800       0.10873900
    20  H          0.19800300       0.58310800       0.39126100
    21  N          0.24213000       0.00308000       0.79347000
    22  N          0.75787000       0.50308000       0.70653000
    23  N          0.75787000      -0.00308000       0.20653000
    24  N          0.24213000       0.49692000       0.29347000
    25  C          0.48222000       0.23017000      -0.00494000
    26  C          0.51778000       0.73017000       0.50494000
    27  C          0.51778000       0.76983000       0.00494000
    28  C          0.48222000       0.26983000       0.49506000
    29  N          0.30412000       0.08078000       0.79327000
    30  N          0.69588000       0.58078000       0.70673000
    31  N          0.69588000       0.91922000       0.20673000
    32  N          0.30412000       0.41922000       0.29327000
    33  C          0.61632000       0.35237000       0.15643000
    34  C          0.38368000       0.85237000       0.34357000
    35  C          0.38368000       0.64763000       0.84357000
    36  C          0.61632000       0.14763000       0.65643000
    37  C          0.64502000       0.35618000       0.29374000
    38  C          0.35498000       0.85618000       0.20626000
    39  C          0.35498000       0.64382000       0.70626000
    40  C          0.64502000       0.14382000       0.79374000
    41  N          0.39692000       0.15036000       0.90717000
    42  N          0.60308000       0.65036000       0.59283000
    43  N          0.60308000       0.84964000       0.09283000
    44  N          0.39692000       0.34964000       0.40717000
    45  C          0.76643000       0.46108000       0.28444000
    46  C          0.23357000       0.96108000       0.21556000
    47  C          0.23357000       0.53892000       0.71556000
    48  C          0.76643000       0.03892000       0.78444000
    49  N          0.44482000       0.19978000       0.77197000
    50  N          0.55518000       0.69978000       0.72803000
    51  N          0.55518000       0.80022000       0.22803000
    52  N          0.44482000       0.30022000       0.27197000
    53  H          0.47933700       0.23599500       0.74489300
    54  H          0.52066300       0.73599500       0.75510700
    55  H          0.52066300       0.76400500       0.25510700
    56  H          0.47933700       0.26400500       0.24489300
    57  H          0.40651600       0.16240500       0.74187400
    58  H          0.59348400       0.66240500       0.75812600
    59  H          0.59348400       0.83759500       0.25812600
    60  H          0.40651600       0.33759500       0.24187400
    61  N          0.50472000       0.25356000       0.91497000
    62  N          0.49528000       0.75356000       0.58503000
    63  N          0.49528000       0.74644000       0.08503000
    64  N          0.50472000       0.24644000       0.41497000
    65  N          0.41822000       0.16776000      -0.00493000
    66  N          0.58178000       0.66776000       0.50493000
    67  N          0.58178000       0.83224000       0.00493000
    68  N          0.41822000       0.33224000       0.49507000
    69  N          0.51942000       0.26346000       0.07703000
    70  N          0.48058000       0.76346000       0.42297000
    71  N          0.48058000       0.73654000       0.92297000
    72  N          0.51942000       0.23654000       0.57703000
    73  N          0.57952000       0.32656000       0.07263000
    74  N          0.42048000       0.82656000       0.42737000
    75  N          0.42048000       0.67344000       0.92737000
    76  N          0.57952000       0.17344000       0.57263000
    77  N          0.67922000       0.42137000       0.16123000
    78  N          0.32078000       0.92137000       0.33877000
    79  N          0.32078000       0.57863000       0.83877000
    80  N          0.67922000       0.07863000       0.66123000
    81  N          0.69862000       0.42416000       0.25133000
    82  N          0.30138000       0.92416000       0.24867000
    83  N          0.30138000       0.57584000       0.74867000
    84  N          0.69862000       0.07584000       0.75133000
    85  N          0.59212000       0.31046000       0.23483000
    86  N          0.40788000       0.81046000       0.26517000
    87  N          0.40788000       0.68954000       0.76517000
    88  N          0.59212000       0.18954000       0.73483000
    89  N          0.64832000       0.33658000       0.38033000
    90  N          0.35168000       0.83658000       0.11967000
    91  N          0.35168000       0.66342000       0.61967000
    92  N          0.64832000       0.16342000       0.88033000
    93  H          0.61340200       0.28948800       0.40347800
    94  H          0.38659800       0.78948800       0.09652200
    95  H          0.38659800       0.71051200       0.59652200
    96  H          0.61340200       0.21051200       0.90347800
    97  H          0.68545900       0.37061600       0.41392900
    98  H          0.31454100       0.87061600       0.08607100
    99  H          0.31454100       0.62938400       0.58607100
   100  H          0.68545900       0.12938400       0.91392900
   101  N          0.79232000       0.44698000       0.36803000
   102  N          0.20768000       0.94698000       0.13197000
   103  N          0.20768000       0.55302000       0.63197000
   104  N          0.79232000       0.05302000       0.86803000
   105  N          0.85993000       0.49618000       0.36844000
   106  N          0.14007000      -0.00382000       0.13156000
   107  N          0.14007000       0.50382000       0.63156000
   108  N          0.85993000       0.00382000       0.86844000
   109  N          0.87312000       0.53468000       0.28873000
   110  N          0.12688000       0.03468000       0.21127000
   111  N          0.12688000       0.46532000       0.71127000
   112  N          0.87312000       0.96532000       0.78873000
   113  N          0.81422000       0.51577000       0.23513000
   114  N          0.18578000       0.01577000       0.26487000
   115  N          0.18578000       0.48423000       0.76487000
   116  N          0.81422000      -0.01577000       0.73513000
   117  H          0.80840800       0.53554000       0.17863300
   118  H          0.19159200       0.03554000       0.32136700
   119  H          0.19159200       0.46446000       0.82136700
   120  H          0.80840800       0.96446000       0.67863300
   121  O          0.11602000       0.80633000       0.90067000
   122  O          0.88398000       0.30633000       0.59933000
   123  O          0.88398000       0.19367000       0.09933000
   124  O          0.11602000       0.69367000       0.40067000
   125  S          0.04606700       0.88838000       0.87027890
   126  S          0.95393300       0.38838000       0.62972110
   127  S          0.95393300       0.11162000       0.12972110
   128  S          0.04606700       0.61162000       0.37027890
   129  C          0.04904000       0.96318800       0.76035000
   130  C          0.95096000       0.46318800       0.73965000
   131  C          0.95096000       0.03681200       0.23965000
   132  C          0.04904000       0.53681200       0.26035000
   133  H          0.08269500       0.06484300       0.75927300
   134  H          0.91730500       0.56484300       0.74072700
   135  H          0.91730500       0.93515700       0.24072700
   136  H          0.08269500       0.43515700       0.25927300
   137  H          0.00386900       0.00985600       0.73612300
   138  H         -0.00386900       0.50985600       0.76387700
   139  H         -0.00386900      -0.00985600       0.26387700
   140  H          0.00386900       0.49014400       0.23612300
   141  H          0.06193100       0.85601300       0.72573600
   142  H          0.93806900       0.35601300       0.77426400
   143  H          0.93806900       0.14398700       0.27426400
   144  H          0.06193100       0.64398700       0.22573600
   145  C          0.04444000       0.11671100       0.92045000
   146  C          0.95556000       0.61671100       0.57955000
   147  C          0.95556000       0.88328900       0.07955000
   148  C          0.04444000       0.38328900       0.42045000
   149  H          0.05073600       0.10216500       0.98386600
   150  H          0.94926400       0.60216500       0.51613400
   151  H          0.94926400       0.89783500       0.01613400
   152  H          0.05073600       0.39783500       0.48386600
   153  H          0.00038700       0.17775000       0.90237600
   154  H         -0.00038700       0.67775000       0.59762400
   155  H         -0.00038700       0.82225000       0.09762400
   156  H          0.00038700       0.32225000       0.40237600
   157  H          0.08133100       0.19508400       0.90256500
   158  H          0.91866900       0.69508400       0.59743500
   159  H          0.91866900       0.80491600       0.09743500
   160  H          0.08133100       0.30491600       0.40256500
   161  O          0.81242000       0.61886000       0.07543000
   162  O          0.18758000       0.11886000       0.42457000
   163  O          0.18758000       0.38114000       0.92457000
   164  O          0.81242000       0.88114000       0.57543000
   165  S          0.78650700       0.47922000       0.00233100
   166  S          0.21349300       0.97922000       0.49766900
   167  S          0.21349300       0.52078000      -0.00233100
   168  S          0.78650700       0.02078000       0.50233100
   169  C          0.71834000       0.60201000       0.93895000
   170  C          0.28166000       0.10201000       0.56105000
   171  C          0.28166000       0.39799000       0.06105000
   172  C          0.71834000       0.89799000       0.43895000
   173  H          0.67867200       0.60800000       0.97148300
   174  H          0.32132800       0.10800000       0.52851700
   175  H          0.32132800       0.39200000       0.02851700
   176  H          0.67867200       0.89200000       0.47148300
   177  H          0.70586400       0.53452700       0.88409700
   178  H          0.29413600       0.03452700       0.61590300
   179  H          0.29413600       0.46547300       0.11590300
   180  H          0.70586400       0.96547300       0.38409700
   181  H          0.73315300       0.73070700       0.92683200
   182  H          0.26684700       0.23070700       0.57316800
   183  H          0.26684700       0.26929300       0.07316800
   184  H          0.73315300       0.76929300       0.42683200
   185  C          0.85044000       0.49721000       0.92935000
   186  C          0.14956000      -0.00279000       0.57065000
   187  C          0.14956000       0.50279000       0.07065000
   188  C          0.85044000       0.00279000       0.42935000
   189  H          0.85770900       0.63072300       0.91607000
   190  H          0.14229100       0.13072300       0.58393000
   191  H          0.14229100       0.36927700       0.08393000
   192  H          0.85770900       0.86927700       0.41607000
   193  H          0.83503300       0.42877300       0.87549000
   194  H          0.16496700       0.92877300       0.62451000
   195  H          0.16496700       0.57122700       0.12451000
   196  H          0.83503300       0.07122700       0.37549000
   197  H          0.89320400       0.44180600       0.95678600
   198  H          0.10679600       0.94180600       0.54321400
   199  H          0.10679600       0.55819400       0.04321400
   200  H          0.89320400       0.05819400       0.45678600
