data_IHEQIY
_symmetry_space_group_name_H-M    'P1'
_symmetry_Int_Tables_number       1
loop_
_symmetry_equiv_pos_site_id
_symmetry_equiv_pos_as_xyz
1 x,y,z
_cell_length_a                   8.615712
_cell_length_b                   9.012216
_cell_length_c                   15.7312
_cell_angle_alpha                94.98015
_cell_angle_beta                 92.26611
_cell_angle_gamma                118.26611
loop_
_atom_site_label
_atom_site_type_symbol
_atom_site_fract_x
_atom_site_fract_y
_atom_site_fract_z
     1  N          0.18753000       0.40673000       0.29437150
     2  N          0.81247000       0.59327000       0.70562850
     3  H          0.20940000       0.34040000       0.32520000
     4  H          0.79060000       0.65960000       0.67480000
     5  N          0.27053000       0.64173000       0.41654140
     6  N          0.72947000       0.35827000       0.58345860
     7  N          0.50343000       0.64493000       0.31826130
     8  N          0.49657000       0.35507000       0.68173870
     9  C          0.04923000       0.32764000       0.23171160
    10  C          0.95077000       0.67236000       0.76828840
    11  C          0.94896000       0.14894000       0.22180190
    12  C          0.05104000       0.85106000       0.77819810
    13  H         -0.01910000       0.08590000       0.25730000
    14  H          0.01910000       0.91410000       0.74270000
    15  C          0.80695000       0.06534000       0.16202000
    16  C          0.19305000       0.93466000       0.83798000
    17  H          0.74050000       0.94510000       0.15680000
    18  H          0.25950000       0.05490000       0.84320000
    19  C          0.75905000       0.15465000       0.10882000
    20  C          0.24095000       0.84535000       0.89118000
    21  H          0.65910000       0.09640000       0.06790000
    22  H          0.34090000       0.90360000       0.93210000
    23  C          0.85876000       0.32934000       0.11619190
    24  C          0.14124000       0.67066000       0.88380810
    25  H          0.82730000       0.38980000       0.07870000
    26  H          0.17270000       0.61020000       0.92130000
    27  C          0.00464000       0.42014000       0.17699160
    28  C         -0.00464000       0.57986000       0.82300840
    29  C          0.11534000       0.60694000       0.18355170
    30  C          0.88466000       0.39306000       0.81644830
    31  C          0.08864000       0.70094000       0.12318190
    32  C          0.91136000       0.29906000       0.87681810
    33  H         -0.00090000       0.64290000       0.07710000
    34  H          0.00090000       0.35710000       0.92290000
    35  C          0.18905000       0.87465000       0.12932000
    36  C          0.81095000       0.12535000       0.87068000
    37  H          0.16710000       0.93500000       0.08800000
    38  H          0.83290000       0.06500000       0.91200000
    39  C          0.32125000       0.96144000       0.19502000
    40  C          0.67875000       0.03856000       0.80498000
    41  H          0.38930000       0.08150000       0.19980000
    42  H          0.61070000       0.91850000       0.80020000
    43  C          0.35364000       0.87124000       0.25412000
    44  C          0.64636000       0.12876000       0.74588000
    45  H          0.44750000       0.93110000       0.29820000
    46  H          0.55250000       0.06890000       0.70180000
    47  C          0.25154000       0.69373000       0.25075180
    48  C          0.74846000       0.30627000       0.74924820
    49  C          0.21554000       0.75614000       0.43915190
    50  C          0.78446000       0.24386000       0.56084810
    51  H          0.20080000       0.81870000       0.39690000
    52  H          0.79920000       0.18130000       0.60310000
    53  C          0.18035000       0.78444000       0.52152000
    54  C          0.81965000       0.21556000       0.47848000
    55  H          0.13880000       0.86330000       0.53540000
    56  H          0.86120000       0.13670000       0.46460000
    57  C          0.20554000       0.69794000       0.58402000
    58  C          0.79446000       0.30206000       0.41598000
    59  H          0.18180000       0.71620000       0.64130000
    60  H          0.81820000       0.28380000       0.35870000
    61  C          0.26614000       0.58414000       0.56161190
    62  C          0.73386000       0.41586000       0.43838810
    63  H          0.28830000       0.52550000       0.60380000
    64  H          0.71170000       0.47450000       0.39620000
    65  C          0.29384000       0.55634000       0.47770180
    66  C          0.70616000       0.44366000       0.52229820
    67  H          0.33050000       0.47420000       0.46230000
    68  H          0.66950000       0.52580000       0.53770000
    69  C          0.63313000       0.76483000       0.37429170
    70  C          0.36687000       0.23517000       0.62570830
    71  H          0.60290000       0.81270000       0.42290000
    72  H          0.39710000       0.18730000       0.57710000
    73  C          0.81024000       0.82034000       0.36264180
    74  C          0.18976000       0.17966000       0.63735820
    75  H          0.90010000       0.90480000       0.40310000
    76  H          0.09990000       0.09520000       0.59690000
    77  C          0.85434000       0.75194000       0.29201190
    78  C          0.14566000       0.24806000       0.70798810
    79  H         -0.02510000       0.79090000       0.28220000
    80  H          0.02510000       0.20910000       0.71780000
    81  C          0.72024000       0.62524000       0.23544190
    82  C          0.27976000       0.37476000       0.76455810
    83  H          0.74770000       0.57460000       0.18700000
    84  H          0.25230000       0.42540000       0.81300000
    85  C          0.54704000       0.57404000       0.25048180
    86  C          0.45296000       0.42596000       0.74951820
    87  H          0.45520000       0.48610000       0.21210000
    88  H          0.54480000       0.51390000       0.78790000
    89  B          0.29204000       0.59114000       0.31783190
    90  B          0.70796000       0.40886000       0.68216810
    91  C          0.34315000       0.44056000       0.03662000
    92  C          0.65685000       0.55944000       0.96338000
    93  H          0.23390000       0.39830000       0.06170000
    94  H          0.76610000       0.60170000       0.93830000
    95  C          0.44465000       0.61066000       0.03512000
    96  C          0.55535000       0.38934000       0.96488000
    97  H          0.40660000       0.68670000       0.05960000
    98  H          0.59340000       0.31330000       0.94040000
    99  C          0.39846000       0.32795000       0.00152000
   100  C          0.60154000       0.67205000      -0.00152000
   101  H          0.32770000       0.20930000       0.00310000
   102  H          0.67230000       0.79070000      -0.00310000
   103  Cl         0.25159100       0.15167900       0.41168500
   104  Cl         0.74840900       0.84832100       0.58831500
