data_IHUMII
_symmetry_space_group_name_H-M    'P1'
_symmetry_Int_Tables_number       1
loop_
_symmetry_equiv_pos_site_id
_symmetry_equiv_pos_as_xyz
1 x,y,z
_cell_length_a                   7.26288
_cell_length_b                   13.157314
_cell_length_c                   18.030619
_cell_angle_alpha                80.310117
_cell_angle_beta                 82.101817
_cell_angle_gamma                81.904918
loop_
_atom_site_label
_atom_site_type_symbol
_atom_site_fract_x
_atom_site_fract_y
_atom_site_fract_z
     1  F          0.77991150       0.42137900       0.75319600
     2  F          0.22008850       0.57862100       0.24680400
     3  F          0.67511180       0.42050110       0.90261600
     4  F          0.32488820       0.57949890       0.09738400
     5  F          0.33103180       0.37366900       0.96445600
     6  F          0.66896820       0.62633100       0.03554400
     7  F          0.08869160       0.32929100       0.87658600
     8  F          0.91130840       0.67070900       0.12341400
     9  F          0.19281160       0.32820100       0.72749600
    10  F          0.80718840       0.67179900       0.27250400
    11  C          0.54363000       0.37603140       0.65666900
    12  C          0.45637000       0.62396860       0.34333100
    13  C          0.58902000       0.37721140       0.59020900
    14  C          0.41098000       0.62278860       0.40979100
    15  C          0.63813000       0.37893140       0.51407100
    16  C          0.36187000       0.62106860       0.48592900
    17  C          0.67882000       0.37945140       0.44684900
    18  C          0.32118000       0.62054860       0.55315100
    19  C          0.72213000       0.37923140       0.37082900
    20  C          0.27787000       0.62076860       0.62917100
    21  C          0.75763000       0.37812130       0.30368900
    22  C          0.24237000       0.62187870       0.69631100
    23  C          0.49002000       0.37502130       0.73543900
    24  C          0.50998000       0.62497870       0.26456100
    25  C          0.60962000       0.39860140       0.78250100
    26  C          0.39038000       0.60139860       0.21749900
    27  C          0.55713000       0.39790150       0.85862100
    28  C          0.44287000       0.60209850       0.14137900
    29  C          0.38193000       0.37429140       0.89008900
    30  C          0.61807000       0.62570860       0.10991100
    31  C          0.26013000       0.35135140       0.84549100
    32  C          0.73987000       0.64864860       0.15450900
    33  C          0.31413000       0.35137140       0.76941100
    34  C          0.68587000       0.64862860       0.23058900
    35  C          0.79952000       0.37768130       0.22394900
    36  C          0.20048000       0.62231870       0.77605100
    37  C          0.97023000       0.40672140       0.18637100
    38  C          0.02977000       0.59327860       0.81362900
    39  H          0.05900000       0.42590000       0.21390000
    40  H          0.94100000       0.57410000       0.78610000
    41  C          0.00943000       0.40735140       0.10910100
    42  C         -0.00943000       0.59264860       0.89089900
    43  H          0.12600000       0.42640000       0.08380000
    44  H          0.87400000       0.57360000       0.91620000
    45  C          0.88123000       0.38057150       0.06841100
    46  C          0.11877000       0.61942850       0.93158900
    47  H          0.90870000       0.38200000       0.01520000
    48  H          0.09130000       0.61800000       0.98480000
    49  C          0.71193000       0.35149150       0.10524100
    50  C          0.28807000       0.64850850       0.89475900
    51  H          0.62390000       0.33250000       0.07720000
    52  H          0.37610000       0.66750000       0.92280000
    53  C          0.67053000       0.34995140       0.18238100
    54  C          0.32947000       0.65004860       0.81761900
    55  H          0.55420000       0.33000000       0.20730000
    56  H          0.44580000       0.67000000       0.79270000
    57  F          0.35861150       0.17449900       0.19753600
    58  F          0.64138850       0.82550100       0.80246400
    59  F          0.45627160       0.17115100       0.04859600
    60  F          0.54372840       0.82884900       0.95140400
    61  F          0.20771180       0.13060100       0.96231400
    62  F          0.79228820       0.86939900       0.03768600
    63  F          0.86101170       0.08864110       0.02627700
    64  F          0.13898830       0.91135890       0.97372300
    65  F          0.76653150       0.08346100       0.17682600
    66  F          0.23346850       0.91653900       0.82317400
    67  C          0.00953000       0.12785130       0.27122900
    68  C         -0.00953000       0.87214870       0.72877100
    69  C          0.96772000       0.12689130       0.33800900
    70  C          0.03228000       0.87310870       0.66199100
    71  C          0.92142000       0.12551130       0.41417900
    72  C          0.07858000       0.87448870       0.58582100
    73  C          0.88012000       0.12488130       0.48133900
    74  C          0.11988000       0.87511870       0.51866100
    75  C          0.83452000       0.12333130       0.55727900
    76  C          0.16548000       0.87666870       0.44272100
    77  C          0.79463000       0.12250140       0.62442900
    78  C          0.20537000       0.87749860       0.37557100
    79  C          0.05942000       0.12868130       0.19206900
    80  C          0.94058000       0.87131870       0.80793100
    81  C          0.23442000       0.15167130       0.15699900
    82  C          0.76558000       0.84832870       0.84300100
    83  C          0.28473000       0.15153140       0.08053100
    84  C          0.71527000       0.84846860       0.91946900
    85  C          0.15933000       0.13016140       0.03684900
    86  C          0.84067000       0.86983860       0.96315100
    87  C          0.98353000       0.10794150       0.06961100
    88  C          0.01647000       0.89205850       0.93038900
    89  C          0.93602000       0.10628140       0.14629100
    90  C          0.06398000       0.89371860       0.85370900
    91  C          0.74822000       0.12173130       0.70412900
    92  C          0.25178000       0.87826870       0.29587100
    93  C          0.87243000       0.15197140       0.74685100
    94  C          0.12757000       0.84802860       0.25314900
    95  H         -0.01140000       0.17310000       0.72280000
    96  H          0.01140000       0.82690000       0.27720000
    97  C          0.82643000       0.15108150       0.82372100
    98  C          0.17357000       0.84891850       0.17627900
    99  H          0.91160000       0.17110000       0.85260000
   100  H          0.08840000       0.82890000       0.14740000
   101  C          0.65733000       0.12132140       0.85892100
   102  C          0.34267000       0.87867860       0.14107900
   103  H          0.62590000       0.12140000       0.91180000
   104  H          0.37410000       0.87860000       0.08820000
   105  C          0.53413000       0.09154150       0.81763100
   106  C          0.46587000       0.90845850       0.18236900
   107  H          0.41760000       0.07150000       0.84220000
   108  H          0.58240000       0.92850000       0.15780000
   109  C          0.57833000       0.09056140       0.74056100
   110  C          0.42167000       0.90943860       0.25943900
   111  H          0.49340000       0.06880000       0.71250000
   112  H          0.50660000       0.93120000       0.28750000
   113  F          0.26708160       0.15088100       0.60719600
   114  F          0.73291840       0.84911900       0.39280400
   115  F          0.08748170       0.34410100       0.57653600
   116  F          0.91251830       0.65589900       0.42346400
   117  F          0.10184160       0.44360900       0.43126700
   118  F          0.89815840       0.55639100       0.56873300
   119  F          0.28918160       0.34782900       0.31718600
   120  F          0.71081840       0.65217100       0.68281400
   121  F          0.46954160       0.15403900       0.34743600
   122  F          0.53045840       0.84596100       0.65256400
   123  C          0.46252000       0.04334140       0.49378100
   124  C          0.53748000       0.95665860       0.50621900
   125  C          0.37312000       0.14658140       0.47842100
   126  C          0.62688000       0.85341860       0.52157900
   127  C          0.27452000       0.19875150       0.53518100
   128  C          0.72548000       0.80124850       0.46481900
   129  C          0.18283000       0.29700150       0.52032110
   130  C          0.81717000       0.70299850       0.47967890
   131  C          0.18772000       0.34742140       0.44720110
   132  C          0.81228000       0.65257860       0.55279890
   133  C          0.28442000       0.29814150       0.38871100
   134  C          0.71558000       0.70185850       0.61128900
   135  C          0.37572000       0.19980150       0.40427100
   136  C          0.62428000       0.80019850       0.59572900
