data_IHUMUT
_symmetry_space_group_name_H-M    'P1'
_symmetry_Int_Tables_number       1
loop_
_symmetry_equiv_pos_site_id
_symmetry_equiv_pos_as_xyz
1 x,y,z
_cell_length_a                   19.2934
_cell_length_b                   9.546019
_cell_length_c                   15.7713
_cell_angle_alpha                90.0
_cell_angle_beta                 121.7746
_cell_angle_gamma                90.0
loop_
_atom_site_label
_atom_site_type_symbol
_atom_site_fract_x
_atom_site_fract_y
_atom_site_fract_z
     1  I          0.10817819       0.71738400       0.24376200
     2  I          0.60817819       0.21738400       0.24376200
     3  I          0.89182181       0.71738400       0.25623800
     4  I          0.39182181       0.21738400       0.25623800
     5  I          0.89182181       0.28261600       0.75623800
     6  I          0.39182181       0.78261600       0.75623800
     7  I          0.10817819       0.28261600       0.74376200
     8  I          0.60817819       0.78261600       0.74376200
     9  F          0.11842170       0.92103000       0.41192000
    10  F          0.61842170       0.42103000       0.41192000
    11  F          0.88157830       0.92103000       0.08808000
    12  F          0.38157830       0.42103000       0.08808000
    13  F          0.88157830       0.07897000       0.58808000
    14  F          0.38157830       0.57897000       0.58808000
    15  F          0.11842170       0.07897000       0.91192000
    16  F          0.61842170       0.57897000       0.91192000
    17  F          0.27651180       0.55843000       0.39342000
    18  F          0.77651180       0.05843000       0.39342000
    19  F          0.72348820       0.55843000       0.10658000
    20  F          0.22348820       0.05843000       0.10658000
    21  F          0.72348820       0.44157000       0.60658000
    22  F          0.22348820       0.94157000       0.60658000
    23  F          0.27651180       0.44157000       0.89342000
    24  F          0.77651180       0.94157000       0.89342000
    25  C          0.19403000       0.73855000       0.39673000
    26  C          0.69403000       0.23855000       0.39673000
    27  C          0.80597000       0.73855000       0.10327000
    28  C          0.30597000       0.23855000       0.10327000
    29  C          0.80597000       0.26145000       0.60327000
    30  C          0.30597000       0.76145000       0.60327000
    31  C          0.19403000       0.26145000       0.89673000
    32  C          0.69403000       0.76145000       0.89673000
    33  C          0.18323000       0.83445000       0.45423000
    34  C          0.68323000       0.33445000       0.45423000
    35  C          0.81677000       0.83445000       0.04577000
    36  C          0.31677000       0.33445000       0.04577000
    37  C          0.81677000       0.16555000       0.54577000
    38  C          0.31677000       0.66555000       0.54577000
    39  C          0.18323000       0.16555000       0.95423000
    40  C          0.68323000       0.66555000       0.95423000
    41  C          0.26223000       0.65405000       0.44493000
    42  C          0.76223000       0.15405000       0.44493000
    43  C          0.73777000       0.65405000       0.05507000
    44  C          0.23777000       0.15405000       0.05507000
    45  C          0.73777000       0.34595000       0.55507000
    46  C          0.23777000       0.84595000       0.55507000
    47  C          0.26223000       0.34595000       0.94493000
    48  C          0.76223000       0.84595000       0.94493000
    49  N          0.97338000       0.64704000       0.04423000
    50  N          0.47338000       0.14704000       0.04423000
    51  N          0.02662000       0.64704000       0.45577000
    52  N          0.52662000       0.14704000       0.45577000
    53  N          0.02662000       0.35296000       0.95577000
    54  N          0.52662000       0.85296000       0.95577000
    55  N          0.97338000       0.35296000       0.54423000
    56  N          0.47338000       0.85296000       0.54423000
    57  C          0.93037000       0.54625000       0.05063000
    58  C          0.43037000       0.04625000       0.05063000
    59  C          0.06963000       0.54625000       0.44937000
    60  C          0.56963000       0.04625000       0.44937000
    61  C          0.06963000       0.45375000       0.94937000
    62  C          0.56963000       0.95375000       0.94937000
    63  C          0.93037000       0.45375000       0.55063000
    64  C          0.43037000       0.95375000       0.55063000
    65  H          0.94930000       0.50680000       0.11290000
    66  H          0.44930000       0.00680000       0.11290000
    67  H          0.05070000       0.50680000       0.38710000
    68  H          0.55070000       0.00680000       0.38710000
    69  H          0.05070000       0.49320000       0.88710000
    70  H          0.55070000      -0.00680000       0.88710000
    71  H          0.94930000       0.49320000       0.61290000
    72  H          0.44930000      -0.00680000       0.61290000
    73  C          0.85647000       0.49295000       0.96797000
    74  C          0.35647000      -0.00705000       0.96797000
    75  C          0.14353000       0.49295000       0.53203000
    76  C          0.64353000      -0.00705000       0.53203000
    77  C          0.14353000       0.50705000       0.03203000
    78  C          0.64353000       0.00705000       0.03203000
    79  C          0.85647000       0.50705000       0.46797000
    80  C          0.35647000       0.00705000       0.46797000
    81  C          0.82947000       0.55055000       0.87607000
    82  C          0.32947000       0.05055000       0.87607000
    83  C          0.17053000       0.55055000       0.62393000
    84  C          0.67053000       0.05055000       0.62393000
    85  C          0.17053000       0.44945000       0.12393000
    86  C          0.67053000       0.94945000       0.12393000
    87  C          0.82947000       0.44945000       0.37607000
    88  C          0.32947000       0.94945000       0.37607000
    89  H          0.78150000       0.51810000       0.82070000
    90  H          0.28150000       0.01810000       0.82070000
    91  H          0.21850000       0.51810000       0.67930000
    92  H          0.71850000       0.01810000       0.67930000
    93  H          0.21850000       0.48190000       0.17930000
    94  H          0.71850000       0.98190000       0.17930000
    95  H          0.78150000       0.48190000       0.32070000
    96  H          0.28150000       0.98190000       0.32070000
    97  C          0.87357000       0.65755000       0.86507000
    98  C          0.37357000       0.15755000       0.86507000
    99  C          0.12643000       0.65755000       0.63493000
   100  C          0.62643000       0.15755000       0.63493000
   101  C          0.12643000       0.34245000       0.13493000
   102  C          0.62643000       0.84245000       0.13493000
   103  C          0.87357000       0.34245000       0.36507000
   104  C          0.37357000       0.84245000       0.36507000
   105  C          0.84947000       0.72176000       0.77266000
   106  C          0.34947000       0.22176000       0.77266000
   107  C          0.15053000       0.72176000       0.72734000
   108  C          0.65053000       0.22176000       0.72734000
   109  C          0.15053000       0.27824000       0.22734000
   110  C          0.65053000       0.77824000       0.22734000
   111  C          0.84947000       0.27824000       0.27266000
   112  C          0.34947000       0.77824000       0.27266000
   113  H          0.80230000       0.69150000       0.71530000
   114  H          0.30230000       0.19150000       0.71530000
   115  H          0.19770000       0.69150000       0.78470000
   116  H          0.69770000       0.19150000       0.78470000
   117  H          0.19770000       0.30850000       0.28470000
   118  H          0.69770000       0.80850000       0.28470000
   119  H          0.80230000       0.30850000       0.21530000
   120  H          0.30230000       0.80850000       0.21530000
   121  C          0.89356000       0.82557000       0.76596000
   122  C          0.39356000       0.32557000       0.76596000
   123  C          0.10644000       0.82557000       0.73404000
   124  C          0.60644000       0.32557000       0.73404000
   125  C          0.10644000       0.17443000       0.23404000
   126  C          0.60644000       0.67443000       0.23404000
   127  C          0.89356000       0.17443000       0.26596000
   128  C          0.39356000       0.67443000       0.26596000
   129  H          0.87690000       0.86600000       0.70450000
   130  H          0.37690000       0.36600000       0.70450000
   131  H          0.12310000       0.86600000       0.79550000
   132  H          0.62310000       0.36600000       0.79550000
   133  H          0.12310000       0.13400000       0.29550000
   134  H          0.62310000       0.63400000       0.29550000
   135  H          0.87690000       0.13400000       0.20450000
   136  H          0.37690000       0.63400000       0.20450000
   137  C          0.96516000       0.87297000       0.85275000
   138  C          0.46516000       0.37297000       0.85275000
   139  C          0.03484000       0.87297000       0.64725000
   140  C          0.53484000       0.37297000       0.64725000
   141  C          0.03484000       0.12703000       0.14725000
   142  C          0.53484000       0.62703000       0.14725000
   143  C          0.96516000       0.12703000       0.35275000
   144  C          0.46516000       0.62703000       0.35275000
   145  H         -0.00480000       0.94530000       0.84810000
   146  H          0.49520000       0.44530000       0.84810000
   147  H          0.00480000       0.94530000       0.65190000
   148  H          0.50480000       0.44530000       0.65190000
   149  H          0.00480000       0.05470000       0.15190000
   150  H          0.50480000       0.55470000       0.15190000
   151  H         -0.00480000       0.05470000       0.34810000
   152  H          0.49520000       0.55470000       0.34810000
   153  C         -0.00913000       0.81426000       0.94296000
   154  C          0.49087000       0.31426000       0.94296000
   155  C          0.00913000       0.81426000       0.55704000
   156  C          0.50913000       0.31426000       0.55704000
   157  C          0.00913000       0.18574000       0.05704000
   158  C          0.50913000       0.68574000       0.05704000
   159  C         -0.00913000       0.18574000       0.44296000
   160  C          0.49087000       0.68574000       0.44296000
   161  H          0.03850000       0.84630000      -0.00080000
   162  H          0.53850000       0.34630000      -0.00080000
   163  H          0.96150000       0.84630000       0.50080000
   164  H          0.46150000       0.34630000       0.50080000
   165  H          0.96150000       0.15370000       0.00080000
   166  H          0.46150000       0.65370000       0.00080000
   167  H          0.03850000       0.15370000       0.49920000
   168  H          0.53850000       0.65370000       0.49920000
   169  C          0.94627000       0.70555000       0.95227000
   170  C          0.44627000       0.20555000       0.95227000
   171  C          0.05373000       0.70555000       0.54773000
   172  C          0.55373000       0.20555000       0.54773000
   173  C          0.05373000       0.29445000       0.04773000
   174  C          0.55373000       0.79445000       0.04773000
   175  C          0.94627000       0.29445000       0.45227000
   176  C          0.44627000       0.79445000       0.45227000
   177  C          0.81217000       0.38525000       0.98276000
   178  C          0.31217000       0.88525000       0.98276000
   179  C          0.18783000       0.38525000       0.51724000
   180  C          0.68783000       0.88525000       0.51724000
   181  C          0.18783000       0.61475000       0.01724000
   182  C          0.68783000       0.11475000       0.01724000
   183  C          0.81217000       0.61475000       0.48276000
   184  C          0.31217000       0.11475000       0.48276000
   185  C          0.77287000       0.29925000      -0.00583000
   186  C          0.27287000       0.79925000      -0.00583000
   187  C          0.22713000       0.29925000       0.50583000
   188  C          0.72713000       0.79925000       0.50583000
   189  C          0.22713000       0.70075000       0.00583000
   190  C          0.72713000       0.20075000       0.00583000
   191  C          0.77287000       0.70075000       0.49417000
   192  C          0.27287000       0.20075000       0.49417000
