data_IHUMON
_symmetry_space_group_name_H-M    'P1'
_symmetry_Int_Tables_number       1
loop_
_symmetry_equiv_pos_site_id
_symmetry_equiv_pos_as_xyz
1 x,y,z
_cell_length_a                   7.13605
_cell_length_b                   8.92587
_cell_length_c                   10.23147
_cell_angle_alpha                95.6995
_cell_angle_beta                 108.6315
_cell_angle_gamma                91.8136
loop_
_atom_site_label
_atom_site_type_symbol
_atom_site_fract_x
_atom_site_fract_y
_atom_site_fract_z
     1  I          0.08091300       0.20636200       0.20493200
     2  I          0.91908700       0.79363800       0.79506800
     3  I          0.68268600       0.12290300       0.89398700
     4  I          0.31731400       0.87709700       0.10601300
     5  C          0.95875000       0.06014000       0.01863000
     6  C          0.04125000       0.93986000       0.98137000
     7  N          0.21124000       0.41423000       0.45603000
     8  N          0.78876000       0.58577000       0.54397000
     9  C          0.26545000       0.55154000       0.44223000
    10  C          0.73455000       0.44846000       0.55777000
    11  H          0.25890000       0.57360000       0.35400000
    12  H          0.74110000       0.42640000       0.64600000
    13  C          0.33385000       0.66923000       0.55413000
    14  C          0.66615000       0.33077000       0.44587000
    15  C          0.34125000       0.63774000       0.68373000
    16  C          0.65875000       0.36226000       0.31627000
    17  H          0.38520000       0.71230000       0.75890000
    18  H          0.61480000       0.28770000       0.24110000
    19  C          0.28175000       0.49124000       0.70263000
    20  C          0.71825000       0.50876000       0.29737000
    21  C          0.27916000       0.45244000       0.83274000
    22  C          0.72084000       0.54756000       0.16726000
    23  H          0.31790000       0.52480000       0.90990000
    24  H          0.68210000       0.47520000       0.09010000
    25  C          0.22027000       0.30975000       0.84544000
    26  C          0.77973000       0.69025000       0.15456000
    27  H          0.21820000       0.28510000       0.93110000
    28  H          0.78180000       0.71490000       0.06890000
    29  C          0.16277000       0.20005000       0.73055000
    30  C          0.83723000       0.79995000       0.26945000
    31  H          0.12520000       0.10240000       0.74110000
    32  H          0.87480000       0.89760000       0.25890000
    33  C          0.16076000       0.23384000       0.60234000
    34  C          0.83924000       0.76616000       0.39766000
    35  H          0.12070000       0.15960000       0.52650000
    36  H          0.87930000       0.84040000       0.47350000
    37  C          0.21944000       0.38143000       0.58523000
    38  C          0.78056000       0.61857000       0.41477000
    39  C          0.39985000       0.81374000       0.52984000
    40  C          0.60015000       0.18626000       0.47016000
    41  C          0.46265000       0.93194000       0.51053000
    42  C          0.53735000       0.06806000       0.48947000
