data_IHUNII
_symmetry_space_group_name_H-M    'P1'
_symmetry_Int_Tables_number       1
loop_
_symmetry_equiv_pos_site_id
_symmetry_equiv_pos_as_xyz
1 x,y,z
_cell_length_a                   4.0232
_cell_length_b                   7.5404
_cell_length_c                   20.23911
_cell_angle_alpha                80.963
_cell_angle_beta                 85.293
_cell_angle_gamma                84.003
loop_
_atom_site_label
_atom_site_type_symbol
_atom_site_fract_x
_atom_site_fract_y
_atom_site_fract_z
     1  I          0.16223000       0.18082000       0.12549700
     2  I          0.83777000       0.81918000       0.87450300
     3  F          0.34640000       0.18661800       0.96833000
     4  F          0.65360000       0.81338200       0.03167000
     5  F          0.36840000       0.57911900       0.12646000
     6  F          0.63160000       0.42088100       0.87354000
     7  C          0.35540000       0.37030000       0.04821000
     8  C          0.64460000       0.62970000       0.95179000
     9  C          0.41850000       0.34330000       0.98501000
    10  C          0.58150000       0.65670000       0.01499000
    11  C          0.43550000       0.53430000       0.06311000
    12  C          0.56450000       0.46570000       0.93689000
    13  N          0.93160000       0.91680000       0.23658000
    14  N          0.06840000       0.08320000       0.76342000
    15  C         -0.01850000       0.96070000       0.29949000
    16  C          0.01850000       0.03930000       0.70051000
    17  H          0.06340000       0.07080000       0.30170000
    18  H          0.93660000       0.92920000       0.69830000
    19  C          0.91560000       0.84980000       0.35689000
    20  C          0.08440000       0.15020000       0.64311000
    21  C          0.78560000       0.67880000       0.35379000
    22  C          0.21440000       0.32120000       0.64621000
    23  C          0.71560000       0.55580000       0.41079000
    24  C          0.28440000       0.44420000       0.58921000
    25  H          0.74330000       0.58550000       0.45270000
    26  H          0.25670000       0.41450000       0.54730000
    27  C          0.60850000       0.39470000       0.40591100
    28  C          0.39150000       0.60530000       0.59408900
    29  H          0.57840000       0.31100000       0.44420000
    30  H          0.42160000       0.68900000       0.55580000
    31  C          0.54350000       0.35370000       0.34211200
    32  C          0.45650000       0.64630000       0.65788800
    33  H          0.44580000       0.24990000       0.33920000
    34  H          0.55420000       0.75010000       0.66080000
    35  C          0.62350000       0.46680000       0.28611200
    36  C          0.37650000       0.53320000       0.71388800
    37  H          0.60360000       0.43420000       0.24430000
    38  H          0.39640000       0.56580000       0.75570000
    39  C          0.74260000       0.63770000       0.29119000
    40  C          0.25740000       0.36230000       0.70881000
    41  C          0.81450000       0.76570000       0.23401100
    42  C          0.18550000       0.23430000       0.76598900
    43  H          0.77470000       0.73920000       0.19220000
    44  H          0.22530000       0.26080000       0.80780000
    45  C          0.96850000       0.91070000       0.41891100
    46  C          0.03150000       0.08930000       0.58108900
    47  C         -0.01550000       0.96470000       0.47031100
    48  C          0.01550000       0.03530000       0.52968900
