data_IHUNEE
_symmetry_space_group_name_H-M    'P1'
_symmetry_Int_Tables_number       1
loop_
_symmetry_equiv_pos_site_id
_symmetry_equiv_pos_as_xyz
1 x,y,z
_cell_length_a                   7.36201
_cell_length_b                   19.2784
_cell_length_c                   4.21345
_cell_angle_alpha                94.0701
_cell_angle_beta                 98.1301
_cell_angle_gamma                97.2201
loop_
_atom_site_label
_atom_site_type_symbol
_atom_site_fract_x
_atom_site_fract_y
_atom_site_fract_z
     1  I          0.89951870       0.10797400       0.27292000
     2  I          0.10048130       0.89202600       0.72708000
     3  I          0.32878120       0.05590500       0.16892000
     4  I          0.67121880       0.94409500       0.83108000
     5  C          0.04181800       0.03167000       0.08530000
     6  C          0.95818200       0.96833000       0.91470000
     7  N          0.72688200       0.22376000       0.54830000
     8  N          0.27311800       0.77624000       0.45170000
     9  C          0.80880000       0.28977000       0.50530000
    10  C          0.19120000       0.71023000       0.49470000
    11  H          0.91680000       0.29310000       0.41150000
    12  H          0.08320000       0.70690000       0.58850000
    13  C          0.74558200       0.34977000       0.58930000
    14  C          0.25441800       0.65023000       0.41070000
    15  C          0.57648300       0.34715000       0.71830000
    16  C          0.42351700       0.65285000       0.28170000
    17  C          0.49380000       0.40617000       0.80040000
    18  C          0.50620000       0.59383000       0.19960000
    19  H          0.54810000       0.45080000       0.76840000
    20  H          0.45190000       0.54920000       0.23160000
    21  C          0.33180000       0.39691000       0.92640000
    22  C          0.66820000       0.60309000       0.07360000
    23  H          0.27680000       0.43600000      -0.01760000
    24  H          0.72320000       0.56400000       0.01760000
    25  C          0.24780000       0.33111100      -0.02760000
    26  C          0.75220000       0.66888900       0.02760000
    27  H          0.13720000       0.32650000       0.05550000
    28  H          0.86280000       0.67350000       0.94450000
    29  C          0.32348100       0.27321000       0.89740000
    30  C          0.67651900       0.72679000       0.10260000
    31  H          0.26510000       0.22930000       0.93040000
    32  H          0.73490000       0.77070000       0.06960000
    33  C          0.49148300       0.27896000       0.76830000
    34  C          0.50851700       0.72104000       0.23170000
    35  C          0.57680000       0.22167000       0.68230000
    36  C          0.42320000       0.77833000       0.31770000
    37  H          0.52210000       0.17770000       0.72440000
    38  H          0.47790000       0.82230000       0.27560000
    39  C          0.84880000       0.41447000       0.54030000
    40  C          0.15120000       0.58553000       0.45970000
    41  C          0.94280000       0.46967000       0.51940000
    42  C          0.05720000       0.53033000       0.48060000
