data_IHUNUU
_symmetry_space_group_name_H-M    'P1'
_symmetry_Int_Tables_number       1
loop_
_symmetry_equiv_pos_site_id
_symmetry_equiv_pos_as_xyz
1 x,y,z
_cell_length_a                   7.4792
_cell_length_b                   11.1862
_cell_length_c                   17.4544
_cell_angle_alpha                81.88014
_cell_angle_beta                 87.582
_cell_angle_gamma                79.74012
loop_
_atom_site_label
_atom_site_type_symbol
_atom_site_fract_x
_atom_site_fract_y
_atom_site_fract_z
     1  I          0.48063110       0.02358700       0.74491600
     2  I          0.51936890       0.97641300       0.25508400
     3  I          0.73233100       0.57600300       0.49908600
     4  I          0.26766900       0.42399700       0.50091400
     5  F          0.64801100       0.03466000       0.57256000
     6  F          0.35198900       0.96534000       0.42744000
     7  F          0.74351000       0.86474000       0.47827000
     8  F          0.25649000       0.13526000       0.52173000
     9  F          0.57331000       0.56334000       0.67186000
    10  F          0.42669000       0.43666000       0.32814000
    11  F          0.47901000       0.73174000       0.76657000
    12  F          0.52099000       0.26826000       0.23343000
    13  C          0.56071400       0.88899000       0.67224000
    14  C          0.43928600       0.11101000       0.32776000
    15  C          0.62601500       0.91959000       0.59854000
    16  C          0.37398500       0.08041000       0.40146000
    17  C          0.67491300       0.83031000       0.55125000
    18  C          0.32508700       0.16969000       0.44875000
    19  C          0.66061300       0.70811000       0.57314000
    20  C          0.33938700       0.29189000       0.42686000
    21  C          0.59371400       0.67781000       0.64724000
    22  C          0.40628600       0.32219000       0.35276000
    23  C          0.54571400       0.76819000       0.69534000
    24  C          0.45428600       0.23181000       0.30466000
    25  I          0.68286870       0.16605100       0.06196500
    26  I          0.31713130       0.83394900       0.93803500
    27  I          0.97719850       0.26793100       0.67828500
    28  I          0.02280150       0.73206900       0.32171500
    29  F          0.83238800       0.98494000       0.94005000
    30  F          0.16761200       0.01506000       0.05995000
    31  F          0.95108800       0.02347000       0.79426000
    32  F          0.04891200       0.97653000       0.20574000
    33  F          0.83588600       0.44897000       0.80125000
    34  F          0.16411400       0.55103000       0.19875000
    35  F          0.72168800       0.41187000       0.94766000
    36  F          0.27831200       0.58813000       0.05234000
    37  C          0.77438500       0.19831100       0.94774000
    38  C          0.22561500       0.80168900       0.05226000
    39  C          0.83358500       0.10081000       0.90653000
    40  C          0.16641500       0.89919000       0.09347000
    41  C          0.89638400       0.11841100       0.83223000
    42  C          0.10361600       0.88158900       0.16777000
    43  C          0.89318400       0.23801100       0.79274000
    44  C          0.10681600       0.76198900       0.20726000
    45  C          0.83698300       0.33231100       0.83503000
    46  C          0.16301700       0.66768900       0.16497000
    47  C          0.77848400       0.31471000       0.91124000
    48  C          0.22151600       0.68529000       0.08876000
    49  N          0.36721400       0.22719000       0.83175000
    50  N          0.63278600       0.77281000       0.16825000
    51  N          0.83508700       0.36759000       0.41395000
    52  N          0.16491300       0.63241000       0.58605000
    53  C          0.30511600       0.22141100       0.90343000
    54  C          0.69488400       0.77858900       0.09657000
    55  H          0.29670000       0.14480000       0.93070000
    56  H          0.70330000       0.85520000       0.06930000
    57  C          0.25051500       0.32581000       0.94114000
    58  C          0.74948500       0.67419000       0.05886000
    59  C          0.27141700       0.43791000       0.89984000
    60  C          0.72858300       0.56209000       0.10016000
    61  H          0.23710000       0.50950000       0.92230000
    62  H          0.76290000       0.49050000       0.07770000
    63  C          0.34251800       0.44291200       0.82643000
    64  C          0.65748200       0.55708800       0.17357000
    65  H          0.35860000       0.51740000       0.79830000
    66  H          0.64140000       0.48260000       0.20170000
    67  C          0.38961600       0.33571100       0.79484000
    68  C          0.61038400       0.66428900       0.20516000
    69  H          0.43970000       0.33940000       0.74510000
    70  H          0.56030000       0.66060000       0.25490000
    71  C          0.18181600       0.31561000       0.01926000
    72  C          0.81818400       0.68439000       0.98074000
    73  C          0.13231600       0.30151000       0.08436000
    74  C          0.86768400       0.69849000       0.91564000
    75  C          0.06981500       0.28941000       0.16286000
    76  C          0.93018500       0.71059000       0.83714000
    77  C          0.01061700       0.28061100       0.22626000
    78  C         -0.01061700       0.71938900       0.77374000
    79  C          0.90418400       0.36871100       0.34247000
    80  C          0.09581600       0.63128900       0.65753000
    81  H          0.92240000       0.44360000       0.31560000
    82  H          0.07760000       0.55640000       0.68440000
    83  C          0.95118600       0.26489000       0.30496000
    84  C          0.04881400       0.73511000       0.69504000
    85  C          0.92678400       0.15601000       0.34606000
    86  C          0.07321600       0.84399000       0.65394000
    87  H          0.95670000       0.08430000       0.32350000
    88  H          0.04330000       0.91570000       0.67650000
    89  C          0.85858200       0.15111100       0.42007000
    90  C          0.14141800       0.84888900       0.57993000
    91  H          0.84320000       0.07640000       0.44810000
    92  H          0.15680000       0.92360000       0.55190000
    93  C          0.81248300       0.25871100       0.45296000
    94  C          0.18751700       0.74128900       0.54704000
    95  H          0.76480000       0.25530000       0.50310000
    96  H          0.23520000       0.74470000       0.49690000
