data_IJABEE
_symmetry_space_group_name_H-M    'P1'
_symmetry_Int_Tables_number       1
loop_
_symmetry_equiv_pos_site_id
_symmetry_equiv_pos_as_xyz
1 x,y,z
_cell_length_a                   20.83718
_cell_length_b                   5.22432
_cell_length_c                   19.10627
_cell_angle_alpha                90.0
_cell_angle_beta                 118.83501
_cell_angle_gamma                90.0
loop_
_atom_site_label
_atom_site_type_symbol
_atom_site_fract_x
_atom_site_fract_y
_atom_site_fract_z
     1  C          0.71002400       0.05119150       0.92248500
     2  C          0.28997600       0.05119150       0.57751500
     3  C          0.21002400       0.55119150       0.92248500
     4  C          0.78997600       0.55119150       0.57751500
     5  C          0.28997600       0.94880850       0.07751500
     6  C          0.71002400       0.94880850       0.42248500
     7  C          0.78997600       0.44880850       0.07751500
     8  C          0.21002400       0.44880850       0.42248500
     9  C          0.68418400       0.26685150       0.86271400
    10  C          0.31581600       0.26685150       0.63728600
    11  C          0.18418400       0.76685150       0.86271400
    12  C          0.81581600       0.76685150       0.63728600
    13  C          0.31581600       0.73314850       0.13728600
    14  C          0.68418400       0.73314850       0.36271400
    15  C          0.81581600       0.23314850       0.13728600
    16  C          0.18418400       0.23314850       0.36271400
    17  C          0.73752400       0.40665160       0.85572500
    18  C          0.26247600       0.40665160       0.64427500
    19  C          0.23752400       0.90665160       0.85572500
    20  C          0.76247600       0.90665160       0.64427500
    21  C          0.26247600       0.59334840       0.14427500
    22  C          0.73752400       0.59334840       0.35572500
    23  C          0.76247600       0.09334840       0.14427500
    24  C          0.23752400       0.09334840       0.35572500
    25  H          0.78794100       0.36767000       0.88843300
    26  H          0.21205900       0.36767000       0.61156700
    27  H          0.28794100       0.86767000       0.88843300
    28  H          0.71205900       0.86767000       0.61156700
    29  H          0.21205900       0.63233000       0.11156700
    30  H          0.78794100       0.63233000       0.38843300
    31  H          0.71205900       0.13233000       0.11156700
    32  H          0.28794100       0.13233000       0.38843300
    33  C          0.71627500       0.60358170       0.80045500
    34  C          0.28372500       0.60358170       0.69954500
    35  C          0.21627500       0.10358170       0.80045500
    36  C          0.78372500       0.10358170       0.69954500
    37  C          0.28372500       0.39641830       0.19954500
    38  C          0.71627500       0.39641830       0.30045500
    39  C          0.78372500       0.89641830       0.19954500
    40  C          0.21627500       0.89641830       0.30045500
    41  H          0.75298400       0.69825900       0.79584900
    42  H          0.24701600       0.69825900       0.70415100
    43  H          0.25298400       0.19825900       0.79584900
    44  H          0.74701600       0.19825900       0.70415100
    45  H          0.24701600       0.30174100       0.20415100
    46  H          0.75298400       0.30174100       0.29584900
    47  H          0.74701600       0.80174100       0.20415100
    48  H          0.25298400       0.80174100       0.29584900
    49  C          0.59478500       0.53195180       0.76019500
    50  C          0.40521500       0.53195180       0.73980500
    51  C          0.09478500       0.03195180       0.76019500
    52  C          0.90521500       0.03195180       0.73980500
    53  C          0.40521500       0.46804820       0.23980500
    54  C          0.59478500       0.46804820       0.26019500
    55  C          0.90521500       0.96804820       0.23980500
    56  C          0.09478500       0.96804820       0.26019500
    57  H          0.54486300       0.57659200       0.72693500
    58  H          0.45513700       0.57659200       0.77306500
    59  H          0.04486300       0.07659200       0.72693500
    60  H          0.95513700       0.07659200       0.77306500
    61  H          0.45513700       0.42340800       0.27306500
    62  H          0.54486300       0.42340800       0.22693500
    63  H          0.95513700       0.92340800       0.27306500
    64  H          0.04486300       0.92340800       0.22693500
    65  C          0.61101400       0.33085170       0.81366500
    66  C          0.38898600       0.33085170       0.68633500
    67  C          0.11101400       0.83085170       0.81366500
    68  C          0.88898600       0.83085170       0.68633500
    69  C          0.38898600       0.66914830       0.18633500
    70  C          0.61101400       0.66914830       0.31366500
    71  C          0.88898600       0.16914830       0.18633500
    72  C          0.11101400       0.16914830       0.31366500
    73  H          0.57305000       0.23912900       0.81667700
    74  H          0.42695000       0.23912900       0.68332300
    75  H          0.07305000       0.73912900       0.81667700
    76  H          0.92695000       0.73912900       0.68332300
    77  H          0.42695000       0.76087100       0.18332300
    78  H          0.57305000       0.76087100       0.31667700
    79  H          0.92695000       0.26087100       0.18332300
    80  H          0.07305000       0.26087100       0.31667700
    81  N          0.66024400       0.91712860       0.93144400
    82  N          0.33975600       0.91712860       0.56855600
    83  N          0.16024400       0.41712860       0.93144400
    84  N          0.83975600       0.41712860       0.56855600
    85  N          0.33975600       0.08287140       0.06855600
    86  N          0.66024400       0.08287140       0.43144400
    87  N          0.83975600       0.58287140       0.06855600
    88  N          0.16024400       0.58287140       0.43144400
    89  H          0.67697000       0.78270000       0.96677000
    90  H          0.32303000       0.78270000       0.53323000
    91  H          0.17697000       0.28270000       0.96677000
    92  H          0.82303000       0.28270000       0.53323000
    93  H          0.32303000       0.21730000       0.03323000
    94  H          0.67697000       0.21730000       0.46677000
    95  H          0.82303000       0.71730000       0.03323000
    96  H          0.17697000       0.71730000       0.46677000
    97  H          0.61157000       0.95070000       0.90648000
    98  H          0.38843000       0.95070000       0.59352000
    99  H          0.11157000       0.45070000       0.90648000
   100  H          0.88843000       0.45070000       0.59352000
   101  H          0.38843000       0.04930000       0.09352000
   102  H          0.61157000       0.04930000       0.40648000
   103  H          0.88843000       0.54930000       0.09352000
   104  H          0.11157000       0.54930000       0.40648000
   105  N          0.64608400       0.66525140       0.75340400
   106  N          0.35391600       0.66525140       0.74659600
   107  N          0.14608400       0.16525140       0.75340400
   108  N          0.85391600       0.16525140       0.74659600
   109  N          0.35391600       0.33474860       0.24659600
   110  N          0.64608400       0.33474860       0.25340400
   111  N          0.85391600       0.83474860       0.24659600
   112  N          0.14608400       0.83474860       0.25340400
   113  O          0.77636300       0.00541130       0.96008400
   114  O          0.22363700       0.00541130       0.53991600
   115  O          0.27636300       0.50541130       0.96008400
   116  O          0.72363700       0.50541130       0.53991600
   117  O          0.22363700      -0.00541130       0.03991600
   118  O          0.77636300      -0.00541130       0.46008400
   119  O          0.72363700       0.49458870       0.03991600
   120  O          0.27636300       0.49458870       0.46008400
   121  C          0.54171400       0.09768150       0.61721500
   122  C          0.45828600       0.09768150       0.88278500
   123  C          0.04171400       0.59768150       0.61721500
   124  C          0.95828600       0.59768150       0.88278500
   125  C          0.45828600       0.90231850       0.38278500
   126  C          0.54171400       0.90231850       0.11721500
   127  C          0.95828600       0.40231850       0.38278500
   128  C          0.04171400       0.40231850       0.11721500
   129  C          0.52044400       0.30560150       0.55644400
   130  C          0.47955600       0.30560150       0.94355600
   131  C          0.02044400       0.80560150       0.55644400
   132  C          0.97955600       0.80560150       0.94355600
   133  C          0.47955600       0.69439850       0.44355600
   134  C          0.52044400       0.69439850       0.05644400
   135  C          0.97955600       0.19439850       0.44355600
   136  C          0.02044400       0.19439850       0.05644400
   137  C          0.44781400       0.38693170       0.51581500
   138  C          0.55218600       0.38693170       0.98418500
   139  C          0.94781400       0.88693170       0.51581500
   140  C          0.05218600       0.88693170       0.98418500
   141  C          0.55218600       0.61306830       0.48418500
   142  C          0.44781400       0.61306830       0.01581500
   143  C          0.05218600       0.11306830       0.48418500
   144  C          0.94781400       0.11306830       0.01581500
   145  H          0.41226500       0.30967900       0.52665100
   146  H          0.58773500       0.30967900       0.97334900
   147  H          0.91226500       0.80967900       0.52665100
   148  H          0.08773500       0.80967900       0.97334900
   149  H          0.58773500       0.69032100       0.47334900
   150  H          0.41226500       0.69032100       0.02665100
   151  H          0.08773500       0.19032100       0.47334900
   152  H          0.91226500       0.19032100       0.02665100
   153  C          0.42746400       0.58093170       0.45948500
   154  C          0.57253600       0.58093170       0.04051500
   155  C          0.92746400       0.08093170       0.45948500
   156  C          0.07253600       0.08093170       0.04051500
   157  C          0.57253600       0.41906830       0.54051500
   158  C          0.42746400       0.41906830       0.95948500
   159  C          0.07253600       0.91906830       0.54051500
   160  C          0.92746400       0.91906830       0.95948500
   161  H          0.37793600       0.63645200       0.43172400
   162  H          0.62206400       0.63645200       0.06827600
   163  H          0.87793600       0.13645200       0.43172400
   164  H          0.12206400       0.13645200       0.06827600
   165  H          0.62206400       0.36354800       0.56827600
   166  H          0.37793600       0.36354800       0.93172400
   167  H          0.12206400       0.86354800       0.56827600
   168  H          0.87793600       0.86354800       0.93172400
   169  O          0.61089300       0.03260140       0.64994400
   170  O          0.38910700       0.03260140       0.85005600
   171  O          0.11089300       0.53260140       0.64994400
   172  O          0.88910700       0.53260140       0.85005600
   173  O          0.38910700       0.96739860       0.35005600
   174  O          0.61089300       0.96739860       0.14994400
   175  O          0.88910700       0.46739860       0.35005600
   176  O          0.11089300       0.46739860       0.14994400
   177  O          0.49831300      -0.00060870       0.63528400
   178  O          0.50168700      -0.00060870       0.86471600
   179  O         -0.00168700       0.49939130       0.63528400
   180  O          0.00168700       0.49939130       0.86471600
   181  O          0.50168700       0.00060870       0.36471600
   182  O          0.49831300       0.00060870       0.13528400
   183  O          0.00168700       0.50060870       0.36471600
   184  O         -0.00168700       0.50060870       0.13528400
   185  H          0.62231000       0.89340000       0.69061100
   186  H          0.37769000       0.89340000       0.80938900
   187  H          0.12231000       0.39340000       0.69061100
   188  H          0.87769000       0.39340000       0.80938900
   189  H          0.37769000       0.10660000       0.30938900
   190  H          0.62231000       0.10660000       0.19061100
   191  H          0.87769000       0.60660000       0.30938900
   192  H          0.12231000       0.60660000       0.19061100
