data_IJEZUT
_symmetry_space_group_name_H-M    'P1'
_symmetry_Int_Tables_number       1
loop_
_symmetry_equiv_pos_site_id
_symmetry_equiv_pos_as_xyz
1 x,y,z
_cell_length_a                   6.52254
_cell_length_b                   10.64746
_cell_length_c                   23.244414
_cell_angle_alpha                90.0
_cell_angle_beta                 93.9832
_cell_angle_gamma                90.0
loop_
_atom_site_label
_atom_site_type_symbol
_atom_site_fract_x
_atom_site_fract_y
_atom_site_fract_z
     1  N          0.80617860       0.21439800       0.04239400
     2  N          0.19382140       0.71439800       0.45760600
     3  N          0.19382140       0.78560200       0.95760600
     4  N          0.80617860       0.28560200       0.54239400
     5  C          0.69771810       0.10192110       0.02059500
     6  C          0.30228190       0.60192110       0.47940500
     7  C          0.30228190       0.89807890       0.97940500
     8  C          0.69771810       0.39807890       0.52059500
     9  H          0.59110000       0.07950000       0.04650000
    10  H          0.40890000       0.57950000       0.45350000
    11  H          0.40890000       0.92050000       0.95350000
    12  H          0.59110000       0.42050000       0.54650000
    13  H          0.79540000       0.03230000       0.01880000
    14  H          0.20460000       0.53230000       0.48120000
    15  H          0.20460000       0.96770000       0.98120000
    16  H          0.79540000       0.46770000       0.51880000
    17  H          0.63410000       0.11860000       0.98190000
    18  H          0.36590000       0.61860000       0.51810000
    19  H          0.36590000       0.88140000       0.01810000
    20  H          0.63410000       0.38140000       0.48190000
    21  C         -0.01538170       0.24447100       0.01562400
    22  C          0.01538170       0.74447100       0.48437600
    23  C          0.01538170       0.75552900       0.98437600
    24  C         -0.01538170       0.25552900       0.51562400
    25  O          0.04358140       0.18082900       0.97683600
    26  O          0.95641860       0.68082900       0.52316400
    27  O          0.95641860       0.81917100       0.02316400
    28  O          0.04358140       0.31917100       0.47683600
    29  N          0.08888130       0.35020900       0.03493400
    30  N          0.91111870       0.85020900       0.46506600
    31  N          0.91111870       0.64979100       0.96506600
    32  N          0.08888130       0.14979100       0.53493400
    33  C          0.27579170       0.38489120       0.00821500
    34  C          0.72420830       0.88489120       0.49178500
    35  C          0.72420830       0.61510880       0.99178500
    36  C          0.27579170       0.11510880       0.50821500
    37  H          0.34210000       0.45520000       0.02940000
    38  H          0.65790000       0.95520000       0.47060000
    39  H          0.65790000       0.54480000       0.97060000
    40  H          0.34210000       0.04480000       0.52940000
    41  H          0.24160000       0.40990000       0.96810000
    42  H          0.75840000       0.90990000       0.53190000
    43  H          0.75840000       0.59010000       0.03190000
    44  H          0.24160000       0.09010000       0.46810000
    45  H          0.36960000       0.31290000       0.00910000
    46  H          0.63040000       0.81290000       0.49090000
    47  H          0.63040000       0.68710000       0.99090000
    48  H          0.36960000       0.18710000       0.50910000
    49  C          0.01811150       0.41835900       0.07892400
    50  C         -0.01811150       0.91835900       0.42107600
    51  C         -0.01811150       0.58164100       0.92107600
    52  C          0.01811150       0.08164100       0.57892400
    53  C          0.84563850       0.38444900       0.10545400
    54  C          0.15436150       0.88444900       0.39454600
    55  C          0.15436150       0.61555100       0.89454600
    56  C          0.84563850       0.11555100       0.60545400
    57  C          0.72629850       0.27821900       0.08800400
    58  C          0.27370150       0.77821900       0.41199600
    59  C          0.27370150       0.72178100       0.91199600
    60  C          0.72629850       0.22178100       0.58800400
    61  O          0.56676880       0.24290800       0.10791300
    62  O          0.43323120       0.74290800       0.39208700
    63  O          0.43323120       0.75709200       0.89208700
    64  O          0.56676880       0.25709200       0.60791300
    65  N          0.82185870       0.47517800       0.14683400
    66  N          0.17814130       0.97517800       0.35316600
    67  N          0.17814130       0.52482200       0.85316600
    68  N          0.82185870       0.02482200       0.64683400
    69  C          0.66690830       0.47987110       0.18902500
    70  C          0.33309170       0.97987110       0.31097500
    71  C          0.33309170       0.52012890       0.81097500
    72  C          0.66690830       0.02012890       0.68902500
    73  H          0.68940000       0.55440000       0.21340000
    74  H          0.31060000       0.05440000       0.28660000
    75  H          0.31060000       0.44560000       0.78660000
    76  H          0.68940000       0.94560000       0.71340000
    77  H          0.67720000       0.40430000       0.21310000
    78  H          0.32280000       0.90430000       0.28690000
    79  H          0.32280000       0.59570000       0.78690000
    80  H          0.67720000       0.09570000       0.71310000
    81  H          0.52990000       0.48400000       0.16900000
    82  H          0.47010000       0.98400000       0.33100000
    83  H          0.47010000       0.51600000       0.83100000
    84  H          0.52990000       0.01600000       0.66900000
    85  C          0.97639840       0.55623110       0.14253500
    86  C          0.02360160       0.05623110       0.35746500
    87  C          0.02360160       0.44376890       0.85746500
    88  C          0.97639840       0.94376890       0.64253500
    89  H         -0.00390000       0.62830000       0.16640000
    90  H          0.00390000       0.12830000       0.33360000
    91  H          0.00390000       0.37170000       0.83360000
    92  H         -0.00390000       0.87170000       0.66640000
    93  N          0.10011140       0.52575900       0.10148400
    94  N          0.89988860       0.02575900       0.39851600
    95  N          0.89988860       0.47424100       0.89851600
    96  N          0.10011140       0.97424100       0.60148400
    97  C          0.84084150       0.01063100       0.17849400
    98  C          0.15915850       0.51063100       0.32150600
    99  C          0.15915850      -0.01063100       0.82150600
   100  C          0.84084150       0.48936900       0.67849400
   101  C          0.00754150       0.00047100       0.14430400
   102  C         -0.00754150       0.50047100       0.35569600
   103  C         -0.00754150      -0.00047100       0.85569600
   104  C          0.00754150       0.49952900       0.64430400
   105  H          0.01470000       0.93170000       0.11850000
   106  H         -0.01470000       0.43170000       0.38150000
   107  H         -0.01470000       0.06830000       0.88150000
   108  H          0.01470000       0.56830000       0.61850000
   109  C          0.16258150       0.08934100       0.14756500
   110  C          0.83741850       0.58934100       0.35243500
   111  C          0.83741850       0.91065900       0.85243500
   112  C          0.16258150       0.41065900       0.64756500
   113  H          0.27550000       0.08130000       0.12410000
   114  H          0.72450000       0.58130000       0.37590000
   115  H          0.72450000       0.91870000       0.87590000
   116  H          0.27550000       0.41870000       0.62410000
   117  C          0.15312150       0.19030100       0.18508400
   118  C          0.84687850       0.69030100       0.31491600
   119  C          0.84687850       0.80969900       0.81491600
   120  C          0.15312150       0.30969900       0.68508400
   121  O          0.29877130       0.28084800       0.18956400
   122  O          0.70122870       0.78084800       0.31043600
   123  O          0.70122870       0.71915200       0.81043600
   124  O          0.29877130       0.21915200       0.68956400
   125  H          0.38930000       0.26431600       0.16438000
   126  H          0.61070000       0.76431600       0.33562000
   127  H          0.61070000       0.73568400       0.83562000
   128  H          0.38930000       0.23568400       0.66438000
   129  C         -0.01013840       0.20087100       0.22010400
   130  C          0.01013840       0.70087100       0.27989600
   131  C          0.01013840       0.79912900       0.77989600
   132  C         -0.01013840       0.29912900       0.72010400
   133  H         -0.01590000       0.26910000       0.24630000
   134  H          0.01590000       0.76910000       0.25370000
   135  H          0.01590000       0.73090000       0.75370000
   136  H         -0.01590000       0.23090000       0.74630000
   137  C          0.83632160       0.11167100       0.21665400
   138  C          0.16367840       0.61167100       0.28334600
   139  C          0.16367840       0.88832900       0.78334600
   140  C          0.83632160       0.38832900       0.71665400
   141  H          0.72510000       0.11910000       0.24070000
   142  H          0.27490000       0.61910000       0.25930000
   143  H          0.27490000       0.88090000       0.75930000
   144  H          0.72510000       0.38090000       0.74070000
   145  C          0.66959150       0.92281100       0.17461400
   146  C          0.33040850       0.42281100       0.32538600
   147  C          0.33040850       0.07718900       0.82538600
   148  C          0.66959150       0.57718900       0.67461400
   149  H          0.57600000       0.92810000       0.20410000
   150  H          0.42400000       0.42810000       0.29590000
   151  H          0.42400000       0.07190000       0.79590000
   152  H          0.57600000       0.57190000       0.70410000
   153  C          0.62994150       0.83566100       0.13412500
   154  C          0.37005850       0.33566100       0.36587500
   155  C          0.37005850       0.16433900       0.86587500
   156  C          0.62994150       0.66433900       0.63412500
   157  H          0.72050000       0.82520000       0.10420000
   158  H          0.27950000       0.32520000       0.39580000
   159  H          0.27950000       0.17480000       0.89580000
   160  H          0.72050000       0.67480000       0.60420000
   161  C          0.44673160       0.75590100       0.13566400
   162  C          0.55326840       0.25590100       0.36433600
   163  C          0.55326840       0.24409900       0.86433600
   164  C          0.44673160       0.74409900       0.63566400
   165  O          0.42563130       0.67860800       0.09027400
   166  O          0.57436870       0.17860800       0.40972600
   167  O          0.57436870       0.32139200       0.90972600
   168  O          0.42563130       0.82139200       0.59027400
   169  H          0.30720000       0.63221500       0.09307000
   170  H          0.69280000       0.13221500       0.40693000
   171  H          0.69280000       0.36778500       0.90693000
   172  H          0.30720000       0.86778500       0.59307000
   173  O          0.32610120       0.75786800       0.17290400
   174  O          0.67389880       0.25786800       0.32709600
   175  O          0.67389880       0.24213200       0.82709600
   176  O          0.32610120       0.74213200       0.67290400
