data_IJUGUS03
_symmetry_space_group_name_H-M    'P1'
_symmetry_Int_Tables_number       1
loop_
_symmetry_equiv_pos_site_id
_symmetry_equiv_pos_as_xyz
1 x,y,z
_cell_length_a                   19.08658
_cell_length_b                   6.76703
_cell_length_c                   17.35187
_cell_angle_alpha                90.0
_cell_angle_beta                 109.35401
_cell_angle_gamma                90.0
loop_
_atom_site_label
_atom_site_type_symbol
_atom_site_fract_x
_atom_site_fract_y
_atom_site_fract_z
     1  F          0.57420600       0.86370830       0.59368700
     2  F          0.57420600       0.13629170       0.09368700
     3  F          0.59191700       0.56615830       0.69806800
     4  F          0.59191700       0.43384170       0.19806800
     5  F          0.94322600       0.19635170       0.41875900
     6  F          0.94322600       0.80364830       0.91875900
     7  F          0.07379700       0.15062000       0.39956110
     8  F          0.07379700       0.84938000       0.89956110
     9  C          0.61184900       0.43712000       0.53563100
    10  C          0.61184900       0.56288000       0.03563100
    11  H          0.56725400       0.51190700       0.52172900
    12  H          0.56725400       0.48809300       0.02172900
    13  C          0.62107900       0.26862000       0.58330100
    14  C          0.62107900       0.73138000       0.08330100
    15  H          0.58189100       0.22802500       0.60209200
    16  H          0.58189100       0.77197500       0.10209200
    17  C          0.68701900       0.15502000       0.60489100
    18  C          0.68701900       0.84498000       0.10489100
    19  C          0.74470900       0.21182000       0.57677100
    20  C          0.74470900       0.78818000       0.07677100
    21  H          0.78895300       0.13573100       0.59006800
    22  H          0.78895300       0.86426900       0.09006800
    23  C          0.85519900       0.44442000       0.48867100
    24  C          0.85519900       0.55558000       0.98867100
    25  H          0.88208200       0.33122000       0.51496300
    26  H          0.88208200       0.66878000       0.01496300
    27  C          0.88615900       0.57512000       0.44655100
    28  C          0.88615900       0.42488000       0.94655100
    29  C          0.84560100       0.74323000       0.40861110
    30  C          0.84560100       0.25677000       0.90861110
    31  H          0.86741000       0.83187200       0.38064300
    32  H          0.86741000       0.16812800       0.88064300
    33  C          0.77513100       0.78373000       0.41069110
    34  C          0.77513100       0.21627000       0.91069110
    35  H          0.74869800       0.89788000       0.38486900
    36  H          0.74869800       0.10212000       0.88486900
    37  N          0.67588800       0.65582000       0.46275900
    38  N          0.67588800       0.34418000       0.96275900
    39  H          0.63871400       0.73840000       0.43771600
    40  H          0.63871400       0.26160000       0.93771600
    41  C          0.67022900       0.49352000       0.50866100
    42  C          0.67022900       0.50648000       0.00866100
    43  C          0.73653900       0.38172000       0.52893100
    44  C          0.73653900       0.61828000       0.02893100
    45  C          0.78426900       0.48222000       0.49161100
    46  C          0.78426900       0.51778000      -0.00838900
    47  C          0.74430900       0.65112000       0.45200100
    48  C          0.74430900       0.34888000       0.95200100
    49  C          0.69686900      -0.01822000       0.65988100
    50  C          0.69686900       0.01822000       0.15988100
    51  C          0.64054900       0.84598000       0.65350100
    52  C          0.64054900       0.15402000       0.15350100
    53  C          0.64996100       0.68838000       0.70657110
    54  C          0.64996100       0.31162000       0.20657110
    55  C          0.71649110       0.65557000       0.76782120
    56  C          0.71649110       0.34443000       0.26782120
    57  H          0.72279600       0.54617100       0.80377600
    58  H          0.72279600       0.45382900       0.30377600
    59  C          0.77429100       0.78817000       0.77535110
    60  C          0.77429100       0.21183000       0.27535110
    61  H          0.82088300       0.76874800       0.81686400
    62  H          0.82088300       0.23125200       0.31686400
    63  C          0.76447900       0.94828000       0.72282110
    64  C          0.76447900       0.05172000       0.22282110
    65  H          0.80447400       0.03763400       0.72960000
    66  H          0.80447400       0.96236600       0.22960000
    67  C          0.96117900       0.54332000       0.44073110
    68  C          0.96117900       0.45668000       0.94073110
    69  C          0.98609100       0.35873000       0.42609120
    70  C          0.98609100       0.64127000       0.92609120
    71  C          0.05457100       0.33403000       0.41581130
    72  C          0.05457100       0.66597000       0.91581130
    73  C          0.10168110       0.49033000       0.42118140
    74  C          0.10168110       0.50967000       0.92118140
    75  H          0.14853000       0.47193100       0.41412800
    76  H          0.14853000       0.52806900       0.91412800
    77  C          0.07898110       0.67583000       0.43718140
    78  C          0.07898110       0.32417000       0.93718140
    79  H          0.11082200       0.78621600       0.44164400
    80  H          0.11082200       0.21378400       0.94164400
    81  C          0.01011110       0.70203000       0.44678130
    82  C          0.01011110       0.29797000       0.94678130
    83  H         -0.00421800       0.83059700       0.45771800
    84  H         -0.00421800       0.16940300       0.95771800
    85  N          0.55796900       0.90118000       0.36112900
    86  N          0.55796900       0.09882000       0.86112900
    87  C          0.49243130       0.87335000       0.38442000
    88  C          0.49243130       0.12665000       0.88442000
    89  H          0.50369700       0.91050700       0.44240700
    90  H          0.50369700       0.08949300       0.94240700
    91  H          0.47790600       0.73230100       0.37837800
    92  H          0.47790600       0.26769900       0.87837800
    93  C          0.42692120       0.00195000       0.33006190
    94  C          0.42692120      -0.00195000       0.83006190
    95  H          0.38830000       0.91548400       0.29330600
    96  H          0.38830000       0.08451600       0.79330600
    97  H          0.40435400       0.07608400       0.36505800
    98  H          0.40435400       0.92391600       0.86505800
    99  C          0.53904160       0.86847000       0.27281140
   100  C          0.53904160       0.13153000       0.77281140
   101  H          0.51716200       0.73529100       0.25840600
   102  H          0.51716200       0.26470900       0.75840600
   103  H          0.58454800       0.87587600       0.25751400
   104  H          0.58454800       0.12412400       0.75751400
   105  C          0.48275140       0.02753000       0.22534120
   106  C          0.48275140       0.97247000       0.72534120
   107  H          0.50732000       0.11907500       0.19783700
   108  H          0.50732000       0.88092500       0.69783700
   109  H          0.44096000       0.96297500       0.18287300
   110  H          0.44096000       0.03702500       0.68287300
   111  C          0.58333110       0.10763000       0.37622140
   112  C          0.58333110       0.89237000       0.87622140
   113  H          0.62293300       0.13222900       0.35227300
   114  H          0.62293300       0.86777100       0.85227300
   115  H          0.60414200       0.13175400       0.43576700
   116  H          0.60414200       0.86824600       0.93576700
   117  C          0.51709110       0.25033000       0.33735130
   118  C          0.51709110       0.74967000       0.83735130
   119  H          0.50194700       0.31326900       0.38087900
   120  H          0.50194700       0.68673100       0.88087900
   121  H          0.53247400       0.35577800       0.30677800
   122  H          0.53247400       0.64422200       0.80677800
   123  N          0.45403800       0.13992000       0.28166100
   124  N          0.45403800       0.86008000       0.78166100
   125  F          0.42370600       0.82285840       0.54103700
   126  F          0.42370600       0.17714160       0.04103700
   127  F          0.40090700       0.53069840       0.43294800
   128  F          0.40090700       0.46930160       0.93294800
   129  F          0.05713600       0.20443170       0.70843900
   130  F          0.05713600       0.79556830       0.20843900
   131  F          0.92664300       0.16558190       0.72790100
   132  F          0.92664300       0.83441810       0.22790100
   133  C          0.39523900       0.40452000       0.60416100
   134  C          0.39523900       0.59548000       0.10416100
   135  H          0.44140500       0.47243500       0.62095200
   136  H          0.44140500       0.52756500       0.12095200
   137  C          0.38438900       0.23772000       0.55504100
   138  C          0.38438900       0.76228000       0.05504100
   139  H          0.42385100       0.19264100       0.53764100
   140  H          0.42385100       0.80735900       0.03764100
   141  C          0.31677900       0.13322000       0.53014100
   142  C          0.31677900       0.86678000       0.03014100
   143  C          0.25845900       0.19702000       0.55585100
   144  C          0.25845900       0.80298000       0.05585100
   145  H          0.21294200       0.12599900       0.54042500
   146  H          0.21294200       0.87400100       0.04042500
   147  C          0.14730900       0.44322000       0.63925100
   148  C          0.14730900       0.55678000       0.13925100
   149  H          0.11954800       0.33178100       0.61242200
   150  H          0.11954800       0.66821900       0.11242200
   151  C          0.11646900       0.57782000       0.67960100
   152  C          0.11646900       0.42218000       0.17960100
   153  C          0.15827100       0.74562000       0.71798110
   154  C          0.15827100       0.25438000       0.21798110
   155  H          0.13643200       0.83799500       0.74443500
   156  H          0.13643200       0.16200500       0.24443500
   157  C          0.23000100       0.77862000       0.71805110
   158  C          0.23000100       0.22138000       0.21805110
   159  H          0.25729200       0.89174800       0.74376400
   160  H          0.25729200       0.10825200       0.24376400
   161  N          0.33131800       0.63462000       0.67294900
   162  N          0.33131800       0.36538000       0.17294900
   163  H          0.37171400       0.70240000       0.70661500
   164  H          0.37171400       0.29760000       0.20661500
   165  C          0.33611900       0.46932000       0.62811100
   166  C          0.33611900       0.53068000       0.12811100
   167  C          0.26769900       0.36592000       0.60445100
   168  C          0.26769900       0.63408000       0.10445100
   169  C          0.21959900       0.47392000       0.63866100
   170  C          0.21959900       0.52608000       0.13866100
   171  C          0.26066900       0.63992000       0.67901100
   172  C          0.26066900       0.36008000       0.17901100
   173  C          0.30476900       0.96328000       0.47288100
   174  C          0.30476900       0.03672000       0.97288100
   175  C          0.35808900       0.81758000       0.47973100
   176  C          0.35808900       0.18242000       0.97973100
   177  C          0.34584100       0.66318000       0.42404110
   178  C          0.34584100       0.33682000       0.92404110
   179  C          0.28030110       0.64657000       0.36000110
   180  C          0.28030110       0.35343000       0.86000110
   181  H          0.27228800       0.54024800       0.32229800
   182  H          0.27228800       0.45975200       0.82229800
   183  C          0.22619100       0.78937000       0.35198110
   184  C          0.22619100       0.21063000       0.85198110
   185  H          0.18038200       0.78084600       0.30833900
   186  H          0.18038200       0.21915400       0.80833900
   187  C          0.23836900       0.94497000       0.40716110
   188  C          0.23836900       0.05503000       0.90716110
   189  H          0.20063800       0.04160700       0.40014300
   190  H          0.20063800       0.95839300       0.90014300
   191  C          0.04092100       0.55173000       0.68476100
   192  C          0.04092100       0.44827000       0.18476100
   193  C          0.01510100       0.36923000       0.70030110
   194  C          0.01510100       0.63077000       0.20030110
   195  C          0.94674900       0.34803000       0.71118120
   196  C          0.94674900       0.65197000       0.21118120
   197  C          0.90002890       0.50653000       0.70505130
   198  C          0.90002890       0.49347000       0.20505130
   199  H          0.85315800       0.49089100       0.71234300
   200  H          0.85315800       0.50910900       0.21234300
   201  C          0.92379890       0.69003000       0.68784150
   202  C          0.92379890       0.30997000       0.18784150
   203  H          0.89250500       0.80189400       0.68265700
   204  H          0.89250500       0.19810600       0.18265700
   205  C         -0.00707110       0.71233000       0.67805130
   206  C         -0.00707110       0.28767000       0.17805130
   207  H          0.00791500       0.83964900       0.66654000
   208  H          0.00791500       0.16035100       0.16654000
