data_IKEYED
_symmetry_space_group_name_H-M    'P1'
_symmetry_Int_Tables_number       1
loop_
_symmetry_equiv_pos_site_id
_symmetry_equiv_pos_as_xyz
1 x,y,z
_cell_length_a                   5.815612
_cell_length_b                   10.3872
_cell_length_c                   12.2072
_cell_angle_alpha                83.673
_cell_angle_beta                 77.633
_cell_angle_gamma                81.033
loop_
_atom_site_label
_atom_site_type_symbol
_atom_site_fract_x
_atom_site_fract_y
_atom_site_fract_z
     1  Cl         0.15380600       0.35605300       0.43986300
     2  Cl         0.84619400       0.64394700       0.56013700
     3  O          0.65362000       0.36420110       0.54491100
     4  O          0.34638000       0.63579890       0.45508900
     5  O          0.52542000       0.17054110       0.60204100
     6  O          0.47458000       0.82945890       0.39795900
     7  O          0.53132000       0.01145120       0.16170100
     8  O          0.46868000      -0.01145120       0.83829900
     9  O          0.27122000       0.88790870       0.15087110
    10  O          0.72878000       0.11209130       0.84912890
    11  C          0.06252000       0.22173130       0.39837120
    12  C          0.93748000       0.77826870       0.60162880
    13  C          0.22392000       0.15455140       0.31599120
    14  C          0.77608000       0.84544860       0.68400880
    15  H          0.37490000       0.18190000       0.28620000
    16  H          0.62510000       0.81810000       0.71380000
    17  C          0.84192000       0.17949130       0.44432110
    18  C          0.15808000       0.82050870       0.55567890
    19  N          0.33392000       0.97669880       0.19049110
    20  N          0.66608000       0.02330120       0.80950890
    21  C          0.16062000       0.04692140       0.27808120
    22  C          0.83938000       0.95307860       0.72191880
    23  C          0.65792000       0.23761140       0.53901120
    24  C          0.34208000       0.76238860       0.46098880
    25  C          0.94343000       0.00349140       0.31843120
    26  C          0.05657000      -0.00349140       0.68156880
    27  H          0.90240000       0.93080000       0.28960000
    28  H          0.09760000       0.06920000       0.71040000
    29  C          0.78783000       0.07000140       0.40260120
    30  C          0.21217000       0.92999860       0.59739880
    31  H          0.63900000       0.04030000       0.43310000
    32  H          0.36100000       0.95970000       0.56690000
    33  H          0.54150000       0.39030000       0.60520000
    34  H          0.45850000       0.60970000       0.39480000
    35  O          0.63588000       0.52341120       0.28334100
    36  O          0.36412000       0.47658880       0.71665900
    37  C          0.95997000       0.42380130       0.15706110
    38  C          0.04003000       0.57619870       0.84293890
    39  C          0.82847000       0.32779140       0.14177120
    40  C          0.17153000       0.67220860       0.85822880
    41  H          0.66790000       0.32950000       0.18040000
    42  H          0.33210000       0.67050000       0.81960000
    43  C          0.84237000       0.52713140       0.23425120
    44  C          0.15763000       0.47286860       0.76574880
    45  C          0.19603000       0.41975150       0.10053130
    46  C          0.80397000       0.58024850       0.89946870
    47  H          0.28710000       0.48430000       0.11060000
    48  H          0.71290000       0.51570000       0.88940000
    49  C          0.16533000       0.22687150       0.01430130
    50  C          0.83467000       0.77312850       0.98569870
    51  H          0.23510000       0.16000000       0.96550000
    52  H          0.76490000       0.84000000       0.03450000
    53  C          0.97597000       0.63312150       0.25021130
    54  C          0.02403000       0.36687850       0.74978870
    55  H          0.87170000       0.69430000       0.30090000
    56  H          0.12830000       0.30570000       0.69910000
    57  H          0.03040000       0.67990000       0.17730000
    58  H          0.96960000       0.32010000       0.82270000
    59  H          0.11350000       0.59470000       0.28290000
    60  H          0.88650000       0.40530000       0.71710000
    61  C          0.93047000       0.23025150       0.07063130
    62  C          0.06953000       0.76974850       0.92936870
    63  H          0.83970000       0.16560000       0.06040000
    64  H          0.16030000       0.83440000       0.93960000
    65  C          0.29853000       0.32148160       0.02937130
    66  C          0.70147000       0.67851840       0.97062870
    67  H          0.45940000       0.31900000      -0.00890000
    68  H          0.54060000       0.68100000       0.00890000
