data_IKEYAZ
_symmetry_space_group_name_H-M    'P1'
_symmetry_Int_Tables_number       1
loop_
_symmetry_equiv_pos_site_id
_symmetry_equiv_pos_as_xyz
1 x,y,z
_cell_length_a                   5.4973
_cell_length_b                   10.4084
_cell_length_c                   10.5944
_cell_angle_alpha                74.09515
_cell_angle_beta                 81.02912
_cell_angle_gamma                85.48716
loop_
_atom_site_label
_atom_site_type_symbol
_atom_site_fract_x
_atom_site_fract_y
_atom_site_fract_z
     1  S          0.44001900       0.68450500       0.93542500
     2  S          0.55998100       0.31549500       0.06457500
     3  O          0.50283000       0.73146150       0.78586140
     4  O          0.49717000       0.26853850       0.21413860
     5  C          0.72674000       0.65952000      -0.00098000
     6  C          0.27326000       0.34048000       0.00098000
     7  H          0.82680000       0.59020000       0.96590000
     8  H          0.17320000       0.40980000       0.03410000
     9  H          0.69650000       0.63120000       0.09610000
    10  H          0.30350000       0.36880000       0.90390000
    11  H          0.81450000       0.74320000       0.96990000
    12  H          0.18550000       0.25680000       0.03010000
    13  C          0.32864000       0.82802000      -0.00808000
    14  C          0.67136000       0.17198000       0.00808000
    15  H          0.45540000       0.89510000       0.96500000
    16  H          0.54460000       0.10490000       0.03500000
    17  H          0.28960000       0.80190000       0.08880000
    18  H          0.71040000       0.19810000       0.91120000
    19  H          0.17970000       0.86570000       0.95290000
    20  H          0.82030000       0.13430000       0.04710000
    21  Cl         0.25605900       0.15156500       0.76134500
    22  Cl         0.74394100       0.84843500       0.23865500
    23  O          0.37533000       0.53940170       0.33901160
    24  O          0.62467000       0.46059830       0.66098840
    25  O          0.09223000       0.53787160       0.21934150
    26  O          0.90777000       0.46212840       0.78065850
    27  O          0.69183000       0.94877850       0.63630150
    28  O          0.30817000       0.05122150       0.36369850
    29  O          0.83913000       0.98021840       0.81084150
    30  O          0.16087000       0.01978160       0.18915850
    31  N          0.19403000       0.49156170       0.31807160
    32  N          0.80597000       0.50843830       0.68192840
    33  C          0.09233000       0.37185190       0.41636180
    34  C          0.90767000       0.62814810       0.58363820
    35  C          0.81073000       0.19682000       0.48332190
    36  C          0.18927000       0.80318000       0.51667810
    37  H          0.67740000       0.15350000       0.46720000
    38  H          0.32260000       0.84650000       0.53280000
    39  C          0.20223000       0.32249190       0.53000180
    40  C          0.79777000       0.67750810       0.46999820
    41  H          0.33720000       0.36570000       0.54450000
    42  H          0.66280000       0.63430000       0.45550000
    43  C          0.89524000       0.31232000       0.39075190
    44  C          0.10476000       0.68768000       0.60924810
    45  H          0.82100000       0.34910000       0.31280000
    46  H          0.17900000       0.65090000       0.68720000
    47  C          0.81443000       0.01561190       0.69420190
    48  C          0.18557000       0.98438810       0.30579810
    49  C          0.91473000       0.14189190       0.59956180
    50  C          0.08527000       0.85810810       0.40043820
    51  C          0.11023000       0.20831190       0.62213180
    52  C          0.88977000       0.79168810       0.37786820
    53  H          0.64070000       0.87060000       0.70340000
    54  H          0.35930000       0.12940000       0.29660000
