data_IKUHUR
_symmetry_space_group_name_H-M    'P1'
_symmetry_Int_Tables_number       1
loop_
_symmetry_equiv_pos_site_id
_symmetry_equiv_pos_as_xyz
1 x,y,z
_cell_length_a                   6.0283
_cell_length_b                   6.7953
_cell_length_c                   11.0625
_cell_angle_alpha                83.09912
_cell_angle_beta                 86.45912
_cell_angle_gamma                68.62512
loop_
_atom_site_label
_atom_site_type_symbol
_atom_site_fract_x
_atom_site_fract_y
_atom_site_fract_z
     1  C          0.11252000       0.94278000       0.01658120
     2  C          0.88748000       0.05722000       0.98341880
     3  H          0.15640000       0.93460000       0.09820000
     4  H          0.84360000       0.06540000       0.90180000
     5  C          0.29932000       0.81728000       0.93679890
     6  C          0.70068000       0.18272000       0.06320110
     7  C          0.53722000       0.74218000       0.97187880
     8  C          0.46278000       0.25782000       0.02812120
     9  H          0.57640000       0.77170000       0.04811900
    10  H          0.42360000       0.22830000       0.95188100
    11  C          0.71222000       0.62488000       0.89482870
    12  C          0.28778000       0.37512000       0.10517130
    13  H          0.87840000       0.57770000       0.91838200
    14  H          0.12160000       0.42230000       0.08161800
    15  N          0.66992000       0.57367810       0.78802890
    16  N          0.33008000       0.42632190       0.21197110
    17  C          0.44073000       0.64358000       0.75578880
    18  C          0.55927000       0.35642000       0.24421120
    19  H          0.41340000       0.60270000       0.67568200
    20  H          0.58660000       0.39730000       0.32431800
    21  C          0.25392000       0.76388000       0.82489880
    22  C          0.74608000       0.23612000       0.17510120
    23  H          0.09140000       0.80570000       0.79858100
    24  H          0.90860000       0.19430000       0.20141900
    25  C          0.31002000       0.13432000       0.56677110
    26  C          0.68998000       0.86568000       0.43322890
    27  C          0.54102000       0.05472000       0.60947110
    28  C          0.45898000       0.94528000       0.39052890
    29  C          0.27362000       0.07672000       0.45567120
    30  C          0.72638000       0.92328000       0.54432880
    31  Br         0.05572200       0.30914200       0.65656711
    32  Br         0.94427800       0.69085800       0.34343289
    33  F          0.58584160       0.10258140       0.71719700
    34  F          0.41415840       0.89741860       0.28280300
    35  F          0.05402140       0.14934140       0.41031800
    36  F          0.94597860       0.85065860       0.58968200
