data_ILAMAM
_symmetry_space_group_name_H-M    'P1'
_symmetry_Int_Tables_number       1
loop_
_symmetry_equiv_pos_site_id
_symmetry_equiv_pos_as_xyz
1 x,y,z
_cell_length_a                   11.30753
_cell_length_b                   11.65894
_cell_length_c                   12.87074
_cell_angle_alpha                68.45901
_cell_angle_beta                 77.92701
_cell_angle_gamma                69.4112
loop_
_atom_site_label
_atom_site_type_symbol
_atom_site_fract_x
_atom_site_fract_y
_atom_site_fract_z
     1  C          0.24306140       0.20888140       0.00992120
     2  C          0.75693860       0.79111860      -0.00992120
     3  C          0.18610140       0.34611140       0.97557130
     4  C          0.81389860       0.65388860       0.02442870
     5  H          0.09925500       0.39016600      -0.00980500
     6  H          0.90074500       0.60983400       0.00980500
     7  C          0.27731140       0.40274150       0.91848130
     8  C          0.72268860       0.59725850       0.08151870
     9  H          0.26564000       0.49308800       0.88679900
    10  H          0.73436000       0.50691200       0.11320100
    11  C          0.39415140       0.30215140       0.91450120
    12  C          0.60584860       0.69784860       0.08549880
    13  C          0.51190140       0.31560140       0.86221120
    14  C          0.48809860       0.68439860       0.13778880
    15  C          0.62227140       0.21228140       0.85975120
    16  C          0.37772860       0.78771860       0.14024880
    17  C          0.74268150       0.22861150       0.80171130
    18  C          0.25731850       0.77138850       0.19828870
    19  H          0.75911800       0.30811200       0.75848900
    20  H          0.24088200       0.69188800       0.24151100
    21  C          0.82663150       0.10962150       0.82077130
    22  C          0.17336850       0.89037850       0.17922870
    23  H          0.91381900       0.08884400       0.79368200
    24  H          0.08618100       0.91115600       0.20631800
    25  C          0.75845140       0.01909140       0.89065130
    26  C          0.24154860       0.98090860       0.10934870
    27  C          0.18299140       0.11528140       0.07208130
    28  C          0.81700860       0.88471860       0.92791870
    29  C          0.04246140       0.16159140       0.10099130
    30  C          0.95753860       0.83840860       0.89900870
    31  C          0.95897850       0.16457170       0.03418140
    32  C          0.04102150       0.83542830       0.96581860
    33  H          0.99108000       0.14080800       0.96821000
    34  H          0.00892000       0.85919200       0.03179000
    35  C          0.82919840       0.20190180       0.06284150
    36  C          0.17080160       0.79809820       0.93715850
    37  H          0.77293300       0.20293400       0.01683200
    38  H          0.22706700       0.79706600       0.98316800
    39  C          0.78149850       0.23757150       0.15804150
    40  C          0.21850150       0.76242850       0.84195850
    41  H          0.69249600       0.26414100       0.17714700
    42  H          0.30750400       0.73585900       0.82285300
    43  C          0.86342840       0.23450160       0.22521160
    44  C          0.13657160       0.76549840       0.77478840
    45  H          0.83087700       0.25816300       0.29118700
    46  H          0.16912300       0.74183700       0.70881300
    47  C          0.99332840       0.19697160       0.19684150
    48  C          0.00667160       0.80302840       0.80315850
    49  H          0.04921400       0.19546800       0.24344300
    50  H          0.95078600       0.80453200       0.75655700
    51  C          0.52386140       0.44998140       0.80941120
    52  C          0.47613860       0.55001860       0.19058880
    53  C          0.58208140       0.49419150       0.86632130
    54  C          0.41791860       0.50580850       0.13367870
    55  H          0.61014300       0.43976100       0.93784700
    56  H          0.38985700       0.56023900       0.06215300
    57  C          0.60000140       0.61529150       0.82123130
    58  C          0.39999860       0.38470850       0.17876870
    59  H          0.63794100       0.64452700       0.86192900
    60  H          0.36205900       0.35547300       0.13807100
    61  C          0.56156140       0.69290140       0.71574140
    62  C          0.43843860       0.30709860       0.28425860
    63  H          0.57483100       0.77541200       0.68345100
    64  H          0.42516900       0.22458800       0.31654900
    65  C          0.50414140       0.65213140       0.65664130
    66  C          0.49585860       0.34786860       0.34335870
    67  H          0.47926600       0.70614600       0.58401600
    68  H          0.52073400       0.29385400       0.41598400
    69  C          0.48261140       0.53109140       0.70383130
    70  C          0.51738860       0.46890860       0.29616870
    71  C          0.33252140       0.56763140       0.57283120
    72  C          0.66747860       0.43236860       0.42716880
    73  C          0.17651140       0.56039140       0.46963120
    74  C          0.82348860       0.43960860       0.53036880
    75  C          0.08722150       0.67839150       0.47063130
    76  C          0.91277850       0.32160850       0.52936870
    77  H          0.09649000       0.72423200       0.51456400
    78  H          0.90351000       0.27576800       0.48543600
    79  C          0.98467850       0.72845150       0.40700140
    80  C          0.01532150       0.27154850       0.59299860
    81  C          0.96964850       0.66504150       0.34029140
    82  C          0.03035150       0.33495850       0.65970860
    83  H          0.90005600       0.70115700       0.29582900
    84  H          0.09994400       0.29884300       0.70417100
    85  C          0.05893150       0.54764150       0.34033130
    86  C          0.94106850       0.45235850       0.65966870
    87  C          0.16168140       0.49450150       0.40465130
    88  C          0.83831860       0.50549850       0.59534870
    89  H          0.22151300       0.41350200       0.40421100
    90  H          0.77848700       0.58649800       0.59578900
    91  C          0.88536840       0.85187170       0.41215160
    92  C          0.11463160       0.14812830       0.58784840
    93  C          0.04795160       0.47870170       0.26656140
    94  C          0.95204840       0.52129830       0.73343860
    95  F          0.91691880       0.91257120       0.46624140
    96  F          0.08308120       0.08742880       0.53375860
    97  F          0.85862900       0.93525100       0.31041100
    98  F          0.14137100       0.06474900       0.68958900
    99  F          0.77431900       0.83198100       0.46350100
   100  F          0.22568100       0.16801900       0.53649900
   101  F          0.92743100       0.48330100       0.26651800
   102  F          0.07256900       0.51669900       0.73348200
   103  F          0.08802100       0.53088110       0.15911800
   104  F          0.91197900       0.46911890       0.84088200
   105  F          0.11601100       0.35355900       0.29770900
   106  F          0.88398900       0.64644100       0.70229100
   107  N          0.36917110       0.18670120       0.97163100
   108  N          0.63082890       0.81329880       0.02836900
   109  H          0.42569500       0.10982500       0.98214700
   110  H          0.57430500       0.89017500       0.01785300
   111  N          0.63359120       0.08340120       0.91231100
   112  N          0.36640880       0.91659880       0.08768900
   113  N          0.42339120       0.48743120       0.64599110
   114  N          0.57660880       0.51256880       0.35400890
   115  H          0.43011700       0.40191400       0.67091400
   116  H          0.56988300       0.59808600       0.32908600
   117  N          0.28001120       0.50156120       0.53532110
   118  N          0.71998880       0.49843880       0.46467890
   119  H          0.31334800       0.41702000       0.55361300
   120  H          0.68665200       0.58298000       0.44638700
   121  O          0.30104110       0.68507100       0.54352900
   122  O          0.69895890       0.31492900       0.45647100
   123  C          0.40342000       0.01333170       0.78513160
   124  C          0.59658000       0.98666830       0.21486840
   125  H          0.32318300       0.05342000       0.82283200
   126  H          0.67681700       0.94658000       0.17716800
   127  H          0.46355900       0.95560200       0.84099900
   128  H          0.53644100       0.04439800       0.15900100
   129  H          0.38812500       0.96346100       0.74512100
   130  H          0.61187500       0.03653900       0.25487900
   131  C          0.45702190       0.11613160       0.70358150
   132  C          0.54297810       0.88386840       0.29641850
   133  C          0.58962000       0.07372000       0.65209180
   134  C          0.41038000       0.92628000       0.34790820
   135  H          0.59122300       0.02968300       0.59967900
   136  H          0.40877700       0.97031700       0.40032100
   137  H          0.64516300       0.01412400       0.71116600
   138  H          0.35483700       0.98587600       0.28883400
   139  H          0.61929700       0.14935100       0.61166000
   140  H          0.38070300       0.85064900       0.38834000
   141  O          0.39379150       0.22997120       0.67902130
   142  O          0.60620850       0.77002880       0.32097870
