data_ILEQOI
_symmetry_space_group_name_H-M    'P1'
_symmetry_Int_Tables_number       1
loop_
_symmetry_equiv_pos_site_id
_symmetry_equiv_pos_as_xyz
1 x,y,z
_cell_length_a                   3.54053
_cell_length_b                   8.74798
_cell_length_c                   13.374612
_cell_angle_alpha                90.0
_cell_angle_beta                 92.3473
_cell_angle_gamma                90.0
loop_
_atom_site_label
_atom_site_type_symbol
_atom_site_fract_x
_atom_site_fract_y
_atom_site_fract_z
     1  O          0.05253000       0.31838110       0.70562700
     2  O          0.94747000       0.81838110       0.79437300
     3  O          0.94747000       0.68161890       0.29437300
     4  O          0.05253000       0.18161890       0.20562700
     5  N          0.19823000       0.46734120       0.69161900
     6  N          0.80177000       0.96734120       0.80838100
     7  N          0.80177000       0.53265880       0.30838100
     8  N          0.19823000       0.03265880       0.19161900
     9  C          0.11943000       0.49964140       0.59789100
    10  C          0.88057000      -0.00035860       0.90210900
    11  C          0.88057000       0.50035860       0.40210900
    12  C          0.11943000       0.00035860       0.09789100
    13  N          0.21063000       0.62912120       0.54692800
    14  N          0.78937000       0.12912120       0.95307200
    15  N          0.78937000       0.37087880       0.45307200
    16  N          0.21063000       0.87087880       0.04692800
    17  H          0.38250000       0.72620000       0.57051300
    18  H          0.61750000       0.22620000       0.92948700
    19  H          0.61750000       0.27380000       0.42948700
    20  H          0.38250000       0.77380000       0.07051300
    21  C          0.08053000       0.62806140       0.44920100
    22  C          0.91947000       0.12806140       0.05079900
    23  C          0.91947000       0.37193860       0.55079900
    24  C          0.08053000       0.87193860       0.94920100
    25  N          0.11813000       0.73721130       0.38440900
    26  N          0.88187000       0.23721130       0.11559100
    27  N          0.88187000       0.26278870       0.61559100
    28  N          0.11813000       0.76278870       0.88440900
    29  N          0.34113000       0.97947130       0.61751900
    30  N          0.65887000       0.47947130       0.88248100
    31  N          0.65887000       0.02052870       0.38248100
    32  N          0.34113000       0.52052870       0.11751900
    33  H          0.40520000       0.00190000       0.68240000
    34  H          0.59480000       0.50190000       0.81760000
    35  H          0.59480000      -0.00190000       0.31760000
    36  H          0.40520000       0.49810000       0.18240000
    37  H          0.10310000       0.94000000       0.61340000
    38  H          0.89690000       0.44000000       0.88660000
    39  H          0.89690000       0.06000000       0.38660000
    40  H          0.10310000       0.56000000       0.11340000
    41  H          0.34930000       0.06610000       0.58000000
    42  H          0.65070000       0.56610000       0.92000000
    43  H          0.65070000       0.93390000       0.42000000
    44  H          0.34930000       0.43390000       0.08000000
    45  O          0.59882000       0.87100100       0.58114700
    46  O          0.40118000       0.37100100       0.91885300
    47  O          0.40118000       0.12899900       0.41885300
    48  O          0.59882000       0.62899900       0.08114700
