data_IMIGAO
_symmetry_space_group_name_H-M    'P1'
_symmetry_Int_Tables_number       1
loop_
_symmetry_equiv_pos_site_id
_symmetry_equiv_pos_as_xyz
1 x,y,z
_cell_length_a                   7.25881
_cell_length_b                   27.8044
_cell_length_c                   7.76221
_cell_angle_alpha                90.0
_cell_angle_beta                 110.5875
_cell_angle_gamma                90.0
loop_
_atom_site_label
_atom_site_type_symbol
_atom_site_fract_x
_atom_site_fract_y
_atom_site_fract_z
     1  F          0.35593000       0.67776500       0.25863000
     2  F          0.64407000       0.17776500       0.24137000
     3  F          0.64407000       0.32223500       0.74137000
     4  F          0.35593000       0.82223500       0.75863000
     5  N          0.18583000       0.38890700       0.66903000
     6  N          0.81417000       0.88890700       0.83097000
     7  N          0.81417000       0.61109300       0.33097000
     8  N          0.18583000       0.11109300       0.16903000
     9  C          0.27043000       0.41621800       0.81973000
    10  C          0.72957000       0.91621800       0.68027000
    11  C          0.72957000       0.58378200       0.18027000
    12  C          0.27043000       0.08378200       0.31973000
    13  C          0.18843000       0.48786700       0.37233000
    14  C          0.81157000       0.98786700       0.12767000
    15  C          0.81157000       0.51213300       0.62767000
    16  C          0.18843000       0.01213300       0.87233000
    17  H          0.13310000       0.47100000       0.25930000
    18  H          0.86690000       0.97100000       0.24070000
    19  H          0.86690000       0.52900000       0.74070000
    20  H          0.13310000       0.02900000       0.75930000
    21  C          0.14493000       0.41012700       0.49943000
    22  C          0.85507000       0.91012700       0.00057000
    23  C          0.85507000       0.58987300       0.50057000
    24  C          0.14493000       0.08987300      -0.00057000
    25  C          0.31843000       0.56948800       0.49833000
    26  C          0.68157000       0.06948800       0.00167000
    27  C          0.68157000       0.43051200       0.50167000
    28  C          0.31843000       0.93051200      -0.00167000
    29  H          0.34870000       0.55850000       0.62110000
    30  H          0.65130000       0.05850000       0.87890000
    31  H          0.65130000       0.44150000       0.37890000
    32  H          0.34870000       0.94150000       0.12110000
    33  C          0.20943000       0.46104700       0.52213000
    34  C          0.79057000       0.96104700       0.97787000
    35  C          0.79057000       0.53895300       0.47787000
    36  C          0.20943000       0.03895300       0.02213000
    37  C          0.35744000       0.61656900       0.46644000
    38  C          0.64256000       0.11656900       0.03356000
    39  C          0.64256000       0.38343100       0.53356000
    40  C          0.35744000       0.88343100       0.96644000
    41  H          0.41310000       0.63820000       0.56600000
    42  H          0.58690000       0.13820000       0.93400000
    43  H          0.58690000       0.36180000       0.43400000
    44  H          0.41310000       0.86180000       0.06600000
    45  O          0.06723000       0.38932600       0.35462000
    46  O          0.93277000       0.88932600       0.14538000
    47  O          0.93277000       0.61067400       0.64538000
    48  O          0.06723000       0.11067400       0.85462000
    49  H          0.15640000       0.36061000       0.68140000
    50  H          0.84360000       0.86061000       0.81860000
    51  H          0.84360000       0.63939000       0.31860000
    52  H          0.15640000       0.13939000       0.18140000
    53  S          0.30719700       0.47498018       0.75625700
    54  S          0.69280300       0.97498018       0.74374300
    55  S          0.69280300       0.52501982       0.24374300
    56  S          0.30719700       0.02501982       0.25625700
    57  S          0.33135110       0.39906300       0.03398900
    58  S          0.66864890       0.89906300       0.46601100
    59  S          0.66864890       0.60093700       0.96601100
    60  S          0.33135110       0.10093700       0.53398900
    61  C          0.23473000       0.53781700       0.35163000
    62  C          0.76527000       0.03781700       0.14837000
    63  C          0.76527000       0.46218300       0.64837000
    64  C          0.23473000       0.96218300       0.85163000
    65  C          0.19333000       0.55538800       0.17363000
    66  C          0.80667000       0.05538800       0.32637000
    67  C          0.80667000       0.44461200       0.82637000
    68  C          0.19333000       0.94461200       0.67363000
    69  H          0.13730000       0.53430000       0.07220000
    70  H          0.86270000       0.03430000       0.42780000
    71  H          0.86270000       0.46570000       0.92780000
    72  H          0.13730000       0.96570000       0.57220000
    73  C          0.23133000       0.60230900       0.14044000
    74  C          0.76867000       0.10230900       0.35956000
    75  C          0.76867000       0.39769100       0.85956000
    76  C          0.23133000       0.89769100       0.64044000
    77  H          0.20070000       0.61390000       0.01840000
    78  H          0.79930000       0.11390000       0.48160000
    79  H          0.79930000       0.38610000      -0.01840000
    80  H          0.20070000       0.88610000       0.51840000
    81  C          0.31423000       0.63158800       0.28834000
    82  C          0.68577000       0.13158800       0.21166000
    83  C          0.68577000       0.36841200       0.71166000
    84  C          0.31423000       0.86841200       0.78834000
    85  O          0.07183000       0.29569600       0.64922000
    86  O          0.92817000       0.79569600       0.85078000
    87  O          0.92817000       0.70430400       0.35078000
    88  O          0.07183000       0.20430400       0.14922000
    89  S          0.07734100       0.26375519       0.80762800
    90  S          0.92265900       0.76375519       0.69237200
    91  S          0.92265900       0.73624481       0.19237200
    92  S          0.07734100       0.23624481       0.30762800
    93  C          0.28365000       0.22520130       0.84565000
    94  C          0.71635000       0.72520130       0.65435000
    95  C          0.71635000       0.77479870       0.15435000
    96  C          0.28365000       0.27479870       0.34565000
    97  H          0.40440000       0.24440000       0.88250000
    98  H          0.59560000       0.74440000       0.61750000
    99  H          0.59560000       0.75560000       0.11750000
   100  H          0.40440000       0.25560000       0.38250000
   101  H          0.26940000       0.20770000       0.73190000
   102  H          0.73060000       0.70770000       0.76810000
   103  H          0.73060000       0.79230000       0.26810000
   104  H          0.26940000       0.29230000       0.23190000
   105  H          0.29060000       0.20220000       0.94330000
   106  H          0.70940000       0.70220000       0.55670000
   107  H          0.70940000       0.79780000       0.05670000
   108  H          0.29060000       0.29780000       0.44330000
   109  C          0.88946000       0.22056900       0.71304000
   110  C          0.11054000       0.72056900       0.78696000
   111  C          0.11054000       0.77943100       0.28696000
   112  C          0.88946000       0.27943100       0.21304000
   113  H          0.90480000       0.20600000       0.60380000
   114  H          0.09520000       0.70600000       0.89620000
   115  H          0.09520000       0.79400000       0.39620000
   116  H          0.90480000       0.29400000       0.10380000
   117  H          0.76070000       0.23620000       0.67840000
   118  H          0.23930000       0.73620000       0.82160000
   119  H          0.23930000       0.76380000       0.32160000
   120  H          0.76070000       0.26380000       0.17840000
   121  H          0.89920000       0.19550000       0.80460000
   122  H          0.10080000       0.69550000       0.69540000
   123  H          0.10080000       0.80450000       0.19540000
   124  H          0.89920000       0.30450000       0.30460000
