data_INACUW
_symmetry_space_group_name_H-M    'P1'
_symmetry_Int_Tables_number       1
loop_
_symmetry_equiv_pos_site_id
_symmetry_equiv_pos_as_xyz
1 x,y,z
_cell_length_a                   8.3617
_cell_length_b                   11.4001
_cell_length_c                   13.71612
_cell_angle_alpha                75.0241
_cell_angle_beta                 85.48512
_cell_angle_gamma                88.14112
loop_
_atom_site_label
_atom_site_type_symbol
_atom_site_fract_x
_atom_site_fract_y
_atom_site_fract_z
     1  O          0.37432000       0.14082160       0.70813120
     2  O          0.62568000       0.85917840       0.29186880
     3  N          0.38703000       0.84624820       0.67980140
     4  N          0.61297000       0.15375180       0.32019860
     5  N          0.51343000       0.74123820       0.52670150
     6  N          0.48657000       0.25876180       0.47329850
     7  N          0.21442000       0.04930170       0.46501140
     8  N          0.78558000       0.95069830       0.53498860
     9  N          0.10192000       0.13959160       0.46984130
    10  N          0.89808000       0.86040840       0.53015870
    11  N          0.15032000       0.04447150       0.62443120
    12  N          0.84968000       0.95552850       0.37556880
    13  N          0.15582000       0.02312160       0.72819120
    14  N          0.84418000       0.97687840       0.27180880
    15  H          0.09480000       0.96220000       0.76390000
    16  H          0.90520000       0.03780000       0.23610000
    17  N          0.85757000       0.16653170       0.68772140
    18  N          0.14243000       0.83346830       0.31227860
    19  N          0.79567000       0.39922180       0.56833150
    20  N          0.20433000       0.60077820       0.43166850
    21  N          0.18202000       0.95799840       0.93388140
    22  N          0.81798000       0.04200160       0.06611860
    23  N          0.36042000       0.10769160       0.01618140
    24  N          0.63958000       0.89230840       0.98381860
    25  C          0.48434000       0.75008000       0.69764190
    26  C          0.51566000       0.24992000       0.30235810
    27  H          0.51200000       0.71690000       0.76350000
    28  H          0.48800000       0.28310000       0.23650000
    29  C          0.54613000       0.69748000       0.62292000
    30  C          0.45387000       0.30252000       0.37708000
    31  H          0.61250000       0.62950000       0.64010000
    32  H          0.38750000       0.37050000       0.35990000
    33  C          0.41753000       0.83818000       0.50784180
    34  C          0.58247000       0.16182000       0.49215820
    35  H          0.39280000       0.87310000       0.44160000
    36  H          0.60720000       0.12690000       0.55840000
    37  C          0.35283000       0.88920810       0.58423160
    38  C          0.64717000       0.11079190       0.41576840
    39  C          0.24253000      -0.00672000       0.55860160
    40  C          0.75747000       0.00672000       0.44139840
    41  C          0.06473000       0.13660190       0.56524160
    42  C          0.93527000       0.86339810       0.43475840
    43  C          0.94387000       0.21382000       0.60111160
    44  C          0.05613000       0.78618000       0.39888840
    45  C          0.91317000       0.32942000       0.54204180
    46  C          0.08683000       0.67058000       0.45795820
    47  H          0.97640000       0.35910000       0.48240000
    48  H          0.02360000       0.64090000       0.51760000
    49  C          0.70996000       0.35162000       0.65442000
    50  C          0.29004000       0.64838000       0.34558000
    51  H          0.62560000       0.39670000       0.67530000
    52  H          0.37440000       0.60330000       0.32470000
    53  C          0.74237000       0.23792000       0.71349180
    54  C          0.25763000       0.76208000       0.28650820
    55  H          0.68100000       0.20950000       0.77420000
    56  H          0.31900000       0.79050000       0.22580000
    57  C          0.27573000       0.07462000       0.76294160
    58  C          0.72427000       0.92538000       0.23705840
    59  C          0.27243000       0.04737190       0.87596160
    60  C          0.72757000       0.95262810       0.12403840
    61  C          0.36053000       0.12082000       0.91680160
    62  C          0.63947000       0.87918000       0.08319840
    63  H          0.42220000       0.18160000       0.87330000
    64  H          0.57780000       0.81840000       0.12670000
    65  C          0.26983000       0.01832000       0.07461170
    66  C          0.73017000       0.98168000       0.92538830
    67  H          0.26530000       0.00590000       0.14450000
    68  H          0.73470000      -0.00590000       0.85550000
    69  C          0.18293000       0.94428000       0.03403170
    70  C          0.81707000       0.05572000       0.96596830
    71  H          0.12270000       0.88250000       0.07760000
    72  H          0.87730000       0.11750000       0.92240000
    73  O          0.10083000       0.31283140       0.29250120
    74  O          0.89917000       0.68716860       0.70749880
    75  H          0.08290000       0.25580000       0.34230000
    76  H          0.91710000       0.74420000       0.65770000
    77  O          0.03713000       0.17888190       0.21168140
    78  O          0.96287000       0.82111810       0.78831860
    79  O          0.07142000       0.30389170       0.83004870
    80  O          0.92858000       0.69610830       0.16995130
    81  O          0.24363000       0.45144170       0.75865870
    82  O          0.75637000       0.54855830       0.24134130
    83  H          0.23510000       0.42660000       0.70830000
    84  H          0.76490000       0.57340000       0.29170000
    85  O          0.44772000       0.71469140       0.94487890
    86  O          0.55228000       0.28530860       0.05512110
    87  H          0.49880000       0.77040000       0.95440000
    88  H          0.50120000       0.22960000       0.04560000
    89  O          0.40952000       0.66778160       0.11273130
    90  O          0.59048000       0.33221840       0.88726870
    91  C          0.14043000       0.36664190       0.11483160
    92  C          0.85957000       0.63335810       0.88516840
    93  C          0.11553000       0.34205190       0.02252160
    94  C          0.88447000       0.65794810       0.97747840
    95  H          0.05690000       0.27440000       0.02160000
    96  H          0.94310000       0.72560000       0.97840000
    97  C          0.17753000       0.41772000       0.93238830
    98  C          0.82247000       0.58228000       0.06761170
    99  C          0.26493000       0.51802000       0.93448830
   100  C          0.73507000       0.48198000       0.06551170
   101  H          0.30770000       0.56850000       0.87410000
   102  H          0.69230000       0.43150000       0.12590000
   103  C          0.28963000       0.54419190       0.02580160
   104  C          0.71037000       0.45580810       0.97419840
   105  C          0.22623000       0.46745190       0.11541160
   106  C          0.77377000       0.53254810       0.88458840
   107  H          0.24190000       0.48440000       0.17670000
   108  H          0.75810000       0.51560000       0.82330000
   109  C          0.08563000       0.27712000       0.21010180
   110  C          0.91437000       0.72288000       0.78989820
   111  C          0.15523000       0.38472000       0.83569820
   112  C          0.84477000       0.61528000       0.16430180
   113  C          0.38673000       0.64762000       0.03250170
   114  C          0.61327000       0.35238000       0.96749830
   115  O          0.27063000       0.39228160       0.58811120
   116  O          0.72937000       0.60771840       0.41188880
   117  H          0.34590000       0.34460000       0.57660000
   118  H          0.65410000       0.65540000       0.42340000
   119  H          0.25260000       0.45280000       0.53890000
   120  H          0.74740000       0.54720000       0.46110000
