data_INAWEB
_symmetry_space_group_name_H-M    'P1'
_symmetry_Int_Tables_number       1
loop_
_symmetry_equiv_pos_site_id
_symmetry_equiv_pos_as_xyz
1 x,y,z
_cell_length_a                   7.80653
_cell_length_b                   9.91463
_cell_length_c                   12.92734
_cell_angle_alpha                99.35301
_cell_angle_beta                 99.9362
_cell_angle_gamma                96.29301
loop_
_atom_site_label
_atom_site_type_symbol
_atom_site_fract_x
_atom_site_fract_y
_atom_site_fract_z
     1  C          0.81853000       0.85982000       0.95242190
     2  C          0.18147000       0.14018000       0.04757810
     3  H          0.91440000       0.86530000       0.00750000
     4  H          0.08560000       0.13470000      -0.00750000
     5  C          0.84313000       0.85252000       0.84933190
     6  C          0.15687000       0.14748000       0.15066810
     7  H          0.95590000       0.85460000       0.83480000
     8  H          0.04410000       0.14540000       0.16520000
     9  C          0.70053000       0.84212000       0.76679170
    10  C          0.29947000       0.15788000       0.23320830
    11  H          0.71730000       0.83520000       0.69670000
    12  H          0.28270000       0.16480000       0.30330000
    13  C          0.53272000       0.84186170       0.78861140
    14  C          0.46728000       0.15813830       0.21138860
    15  C          0.37642000       0.83302170       0.70422150
    16  C          0.62358000       0.16697830       0.29577850
    17  C          0.28342000       0.82692000       0.52051150
    18  C          0.71658000       0.17308000       0.47948850
    19  C          0.19832000       0.69935190       0.45765140
    20  C          0.80168000       0.30064810       0.54234860
    21  C          0.16213000       0.46192000       0.42272000
    22  C          0.83787000       0.53808000       0.57728000
    23  H          0.19210000       0.37930000       0.44080000
    24  H          0.80790000       0.62070000       0.55920000
    25  C          0.03573000       0.45583000       0.33072000
    26  C          0.96427000       0.54417000       0.66928000
    27  H         -0.01620000       0.37090000       0.28910000
    28  H          0.01620000       0.62910000       0.71090000
    29  C          0.24483000       0.94942000       0.49594170
    30  C          0.75517000       0.05058000       0.50405830
    31  H          0.30490000       0.03170000       0.53800000
    32  H          0.69510000       0.96830000       0.46200000
    33  C          0.11403000       0.95202000       0.40694180
    34  C          0.88597000       0.04798000       0.59305820
    35  H          0.08460000       0.03580000       0.39110000
    36  H          0.91540000       0.96420000       0.60890000
    37  C          0.03123000       0.83142000       0.34435160
    38  C          0.96877000       0.16858000       0.65564840
    39  C          0.06982000       0.70152000       0.36614150
    40  C          0.93018000       0.29848000       0.63385850
    41  C         -0.01053000       0.57373000       0.30261180
    42  C          0.01053000       0.42627000       0.69738820
    43  H          0.90510000       0.57080000       0.24170000
    44  H          0.09490000       0.42920000       0.75830000
    45  C          0.51013000       0.85042000       0.89316160
    46  C          0.48987000       0.14958000       0.10683840
    47  H          0.39800000       0.85040000       0.90850000
    48  H          0.60200000       0.14960000       0.09150000
    49  C          0.65183000       0.85902000       0.97457170
    50  C          0.34817000       0.14098000       0.02542830
    51  H          0.63540000       0.86420000       0.04460000
    52  H          0.36460000       0.13580000       0.95540000
    53  N          0.24132000       0.57826170       0.48542130
    54  N          0.75868000       0.42173830       0.51457870
    55  O          0.41919170       0.82592140       0.60626100
    56  O          0.58080830       0.17407860       0.39373900
    57  O          0.22852190       0.83273170       0.71777120
    58  O          0.77147810       0.16726830       0.28222880
    59  Cl         0.87254100       0.83647900       0.23351500
    60  Cl         0.12745900       0.16352100       0.76648500
    61  C          0.45363000       0.39723190       0.66749180
    62  C          0.54637000       0.60276810       0.33250820
    63  C          0.56303000       0.37693190       0.76813180
    64  C          0.43697000       0.62306810       0.23186820
    65  C          0.60463000       0.24682000       0.77842000
    66  C          0.39537000       0.75318000       0.22158000
    67  H          0.56140000       0.17250000       0.72270000
    68  H          0.43860000       0.82750000       0.27730000
    69  C          0.70883000       0.22662000       0.86962000
    70  C          0.29117000       0.77338000       0.13038000
    71  H          0.73640000       0.13890000       0.87540000
    72  H          0.26360000       0.86110000       0.12460000
    73  C          0.77294000       0.33583000       0.95312000
    74  C          0.22706000       0.66417000       0.04688000
    75  H          0.84350000       0.32180000       0.01510000
    76  H          0.15650000       0.67820000       0.98490000
    77  C          0.73204000       0.46543000       0.94422000
    78  C          0.26796000       0.53457000       0.05578000
    79  H          0.77490000       0.53930000       0.00030000
    80  H          0.22510000       0.46070000      -0.00030000
    81  C          0.62794000       0.48592000       0.85272000
    82  C          0.37206000       0.51408000       0.14728000
    83  H          0.60060000       0.57380000       0.84730000
    84  H          0.39940000       0.42620000       0.15270000
    85  H          0.38050000       0.32440000       0.55030000
    86  H          0.61950000       0.67560000       0.44970000
    87  O          0.38413000       0.30340170       0.59608140
    88  O          0.61587000       0.69659830       0.40391860
    89  O          0.43992000       0.52855140       0.66419130
    90  O          0.56008000       0.47144860       0.33580870
