data_INUSOB
_symmetry_space_group_name_H-M    'P1'
_symmetry_Int_Tables_number       1
loop_
_symmetry_equiv_pos_site_id
_symmetry_equiv_pos_as_xyz
1 x,y,z
_cell_length_a                   5.32132
_cell_length_b                   14.49597
_cell_length_c                   21.537412
_cell_angle_alpha                90.0
_cell_angle_beta                 93.1502
_cell_angle_gamma                90.0
loop_
_atom_site_label
_atom_site_type_symbol
_atom_site_fract_x
_atom_site_fract_y
_atom_site_fract_z
     1  S          0.20820130       0.60839500       0.38120400
     2  S          0.29179870       0.10839500       0.11879600
     3  S          0.79179870       0.39160500       0.61879600
     4  S          0.70820130       0.89160500       0.88120400
     5  O          0.30214000       0.56915130       0.32175900
     6  O          0.19786000       0.06915130       0.17824100
     7  O          0.69786000       0.43084870       0.67824100
     8  O          0.80214000       0.93084870       0.82175900
     9  C          0.46657000       0.66953000       0.41580180
    10  C          0.03343000       0.16953000       0.08419820
    11  C          0.53343000       0.33047000       0.58419820
    12  C          0.96657000       0.83047000       0.91580180
    13  H          0.60790000       0.62870000       0.42170000
    14  H          0.89210000       0.12870000       0.07830000
    15  H          0.39210000       0.37130000       0.57830000
    16  H          0.10790000       0.87130000       0.92170000
    17  H          0.42250000       0.69350000       0.45530000
    18  H          0.07750000       0.19350000       0.04470000
    19  H          0.57750000       0.30650000       0.54470000
    20  H          0.92250000       0.80650000       0.95530000
    21  H          0.50970000       0.71960000       0.38920000
    22  H         -0.00970000       0.21960000       0.11080000
    23  H          0.49030000       0.28040000       0.61080000
    24  H          0.00970000       0.78040000       0.88920000
    25  C          0.20518000       0.51632000       0.43346170
    26  C          0.29482000       0.01632000       0.06653830
    27  C          0.79482000       0.48368000       0.56653830
    28  C          0.70518000       0.98368000       0.93346170
    29  H          0.07680000       0.47310000       0.41980000
    30  H          0.42320000       0.97310000       0.08020000
    31  H          0.92320000       0.52690000       0.58020000
    32  H          0.57680000       0.02690000       0.91980000
    33  H          0.17070000       0.53890000       0.47400000
    34  H          0.32930000       0.03890000       0.02600000
    35  H          0.82930000       0.46110000       0.52600000
    36  H          0.67070000       0.96110000       0.97400000
    37  H          0.36600000       0.48610000       0.43520000
    38  H          0.13400000       0.98610000       0.06480000
    39  H          0.63400000       0.51390000       0.56480000
    40  H          0.86600000       0.01390000       0.93520000
    41  O          0.60777000       0.11969110       0.50419800
    42  O          0.89223000       0.61969110      -0.00419800
    43  O          0.39223000       0.88030890       0.49580200
    44  O          0.10777000       0.38030890       0.00419800
    45  O          0.21243000       0.26147110       0.40806800
    46  O          0.28757000       0.76147110       0.09193200
    47  O          0.78757000       0.73852890       0.59193200
    48  O          0.71243000       0.23852890       0.90806800
    49  O          0.11144000       0.43599130       0.24246900
    50  O          0.38856000       0.93599130       0.25753100
    51  O          0.88856000       0.56400870       0.75753100
    52  O          0.61144000       0.06400870       0.74246900
    53  H          0.12070000       0.48140000       0.26510000
    54  H          0.37930000       0.98140000       0.23490000
    55  H          0.87930000       0.51860000       0.73490000
    56  H          0.62070000       0.01860000       0.76510000
    57  N          0.75386000       0.00306130       0.44519900
    58  N          0.74614000       0.50306130       0.05480100
    59  N          0.24614000      -0.00306130       0.55480100
    60  N          0.25386000       0.49693870       0.94519900
    61  O          0.94346000       0.30344120       0.47954900
    62  O          0.55654000       0.80344120       0.02045100
    63  O          0.05654000       0.69655880       0.52045100
    64  O          0.44346000       0.19655880       0.97954900
    65  O          0.75144000       0.49574130       0.31581120
    66  O          0.74856000      -0.00425870       0.18418880
    67  O          0.24856000       0.50425870       0.68418880
    68  O          0.25144000       0.00425870       0.81581120
    69  H          0.60650000       0.51130000       0.32180000
    70  H          0.89350000       0.01130000       0.17820000
    71  H          0.39350000       0.48870000       0.67820000
    72  H          0.10650000       0.98870000       0.82180000
    73  C          0.10544000       0.10916150       0.39613100
    74  C          0.39456000       0.60916150       0.10386900
    75  C          0.89456000       0.89083850       0.60386900
    76  C          0.60544000       0.39083850       0.89613100
    77  C          0.95136000       0.14690150       0.43886100
    78  C          0.54864000       0.64690150       0.06113900
    79  C          0.04864000       0.85309850       0.56113900
    80  C          0.45136000       0.35309850       0.93886100
    81  C          0.27114000       0.18117150       0.37632110
    82  C          0.22886000       0.68117150       0.12367890
    83  C          0.72886000       0.81882850       0.62367890
    84  C          0.77114000       0.31882850       0.87632110
    85  C          0.75906000       0.09388160       0.46615100
    86  C          0.74094000       0.59388160       0.03384900
    87  C          0.24094000       0.90611840       0.53384900
    88  C          0.25906000       0.40611840       0.96615100
    89  C          0.61144000       0.24618160       0.31100110
    90  C          0.88856000       0.74618160       0.18899890
    91  C          0.38856000       0.75381840       0.68899890
    92  C          0.11144000       0.25381840       0.81100110
    93  C          0.08614000       0.01702160       0.37768110
    94  C          0.41386000       0.51702160       0.12231890
    95  C          0.91386000       0.98297840       0.62231890
    96  C          0.58614000       0.48297840       0.87768110
    97  H          0.19220000      -0.00780000       0.34910000
    98  H          0.30780000       0.49220000       0.15090000
    99  H          0.80780000       0.00780000       0.65090000
   100  H          0.69220000       0.50780000       0.84910000
   101  C          0.90586000       0.96509840       0.40322110
   102  C          0.59414000       0.46509840       0.09677890
   103  C          0.09414000       0.03490160       0.59677890
   104  C          0.40586000       0.53490160       0.90322110
   105  C          0.44614000       0.17621160       0.33416110
   106  C          0.05386000       0.67621160       0.16583890
   107  C          0.55386000       0.82378840       0.66583890
   108  C          0.94614000       0.32378840       0.83416110
   109  H          0.46480000       0.11800000       0.31680000
   110  H          0.03520000       0.61800000       0.18320000
   111  H          0.53520000       0.88200000       0.68320000
   112  H          0.96480000       0.38200000       0.81680000
   113  C          0.94914000       0.37362170       0.26562110
   114  C          0.55086000       0.87362170       0.23437890
   115  C          0.05086000       0.62637830       0.73437890
   116  C          0.44914000       0.12637830       0.76562110
   117  C          0.01825000       0.24316170       0.44718110
   118  C          0.48175000       0.74316170       0.05281890
   119  C         -0.01825000       0.75683830       0.55281890
   120  C          0.51825000       0.25683830       0.94718110
   121  C          0.79684000       0.21942170       0.27139110
   122  C          0.70316000       0.71942170       0.22860890
   123  C          0.20316000       0.78057830       0.72860890
   124  C          0.29684000       0.28057830       0.77139110
   125  H          0.80740000       0.15810000       0.25920000
   126  H          0.69260000       0.65810000       0.24080000
   127  H          0.19260000       0.84190000       0.74080000
   128  H          0.30740000       0.34190000       0.75920000
   129  C          0.96515000       0.28308180       0.25012110
   130  C          0.53485000       0.78308180       0.24987890
   131  C          0.03485000       0.71691820       0.74987890
   132  C          0.46515000       0.21691820       0.75012110
   133  H          0.09110000       0.26370000       0.22480000
   134  H          0.40890000       0.76370000       0.27520000
   135  H          0.90890000       0.73630000       0.77520000
   136  H          0.59110000       0.23630000       0.72480000
   137  C          0.75744000       0.40303160       0.30286120
   138  C          0.74256000       0.90303160       0.19713880
   139  C          0.24256000       0.59696840       0.69713880
   140  C          0.25744000       0.09696840       0.80286120
   141  C          0.59494000       0.33986170       0.32602120
   142  C          0.90506000       0.83986170       0.17397880
   143  C          0.40506000       0.66013830       0.67397880
   144  C          0.09494000       0.16013830       0.82602120
   145  H          0.47200000       0.35960000       0.35210000
   146  H          0.02800000       0.85960000       0.14790000
   147  H          0.52800000       0.64040000       0.64790000
   148  H          0.97200000       0.14040000       0.85210000
   149  C          0.86524000       0.86544830       0.38873130
   150  C          0.63476000       0.36544830       0.11126870
   151  C          0.13476000       0.13455170       0.61126870
   152  C          0.36524000       0.63455170       0.88873130
   153  H          0.96440000       0.84820000       0.35470000
   154  H          0.53560000       0.34820000       0.14530000
   155  H          0.03560000       0.15180000       0.64530000
   156  H          0.46440000       0.65180000       0.85470000
   157  H          0.69050000       0.85490000       0.37760000
   158  H          0.80950000       0.35490000       0.12240000
   159  H          0.30950000       0.14510000       0.62240000
   160  H          0.19050000       0.64510000       0.87760000
   161  H          0.91480000       0.82910000       0.42460000
   162  H          0.58520000       0.32910000       0.07540000
   163  H          0.08520000       0.17090000       0.57540000
   164  H          0.41480000       0.67090000       0.92460000
   165  H          0.64660000       0.96898300       0.45951100
   166  H          0.85340000       0.46898300       0.04048900
   167  H          0.35340000       0.03101700       0.54048900
   168  H          0.14660000       0.53101700       0.95951100
