data_INUZIA
_symmetry_space_group_name_H-M    'P1'
_symmetry_Int_Tables_number       1
loop_
_symmetry_equiv_pos_site_id
_symmetry_equiv_pos_as_xyz
1 x,y,z
_cell_length_a                   8.03644
_cell_length_b                   9.01245
_cell_length_c                   10.09696
_cell_angle_alpha                81.28101
_cell_angle_beta                 76.59501
_cell_angle_gamma                67.42201
loop_
_atom_site_label
_atom_site_type_symbol
_atom_site_fract_x
_atom_site_fract_y
_atom_site_fract_z
     1  I          0.34930414       0.04939713       0.16316911
     2  I          0.65069586       0.95060287       0.83683089
     3  O          0.29892000       0.18972000       0.39440160
     4  O          0.70108000       0.81028000       0.60559840
     5  O          0.05922000       0.31119190       0.55443150
     6  O          0.94078000       0.68880810       0.44556850
     7  O          0.31212000      -0.00082000       0.00865150
     8  O          0.68788000       0.00082000      -0.00865150
     9  O          0.44232000       0.85545810       0.25000170
    10  O          0.55768000       0.14454190       0.74999830
    11  C          0.07243000       0.10462000       0.26814190
    12  C          0.92757000       0.89538000       0.73185810
    13  C          0.00973000       0.17872000       0.39162000
    14  C          0.99027000       0.82128000       0.60838000
    15  C          0.83067000       0.20202000       0.46082000
    16  C          0.16933000       0.79798000       0.53918000
    17  H          0.78560000       0.25220000       0.54470000
    18  H          0.21440000       0.74780000       0.45530000
    19  C          0.71897000       0.15183000       0.40722000
    20  C          0.28103000       0.84817000       0.59278000
    21  H          0.59770000       0.16680000       0.45510000
    22  H          0.40230000       0.83320000       0.54490000
    23  C          0.78267000       0.07993000       0.28412000
    24  C          0.21733000       0.92007000       0.71588000
    25  H          0.70480000       0.04630000       0.24800000
    26  H          0.29520000       0.95370000       0.75200000
    27  C          0.96067000       0.05672000       0.21292000
    28  C          0.03933000       0.94328000       0.78708000
    29  H          0.00420000       0.00890000       0.12790000
    30  H         -0.00420000      -0.00890000       0.87210000
    31  C          0.13763000       0.22562000       0.44542000
    32  C          0.86237000       0.77438000       0.55458000
    33  C          0.18033000       0.35873000       0.61082000
    34  C          0.81967000       0.64127000       0.38918000
    35  H          0.10780000       0.43230000       0.68280000
    36  H          0.89220000       0.56770000       0.31720000
    37  H          0.24560000       0.41310000       0.53850000
    38  H          0.75440000       0.58690000       0.46150000
    39  H          0.26930000       0.26290000       0.64920000
    40  H          0.73070000       0.73710000       0.35080000
    41  S          0.29549700       0.46323600       0.04701600
    42  S          0.70450300       0.53676400       0.95298400
    43  O          0.16692000       0.37390190       0.10902000
    44  O          0.83308000       0.62609810       0.89098000
    45  C          0.29143000       0.49623000       0.86978000
    46  C          0.70857000       0.50377000       0.13022000
    47  H          0.35250000       0.39330000       0.82710000
    48  H          0.64750000       0.60670000       0.17290000
    49  H          0.35560000       0.56970000       0.82780000
    50  H          0.64440000       0.43030000       0.17220000
    51  H          0.16380000       0.54380000       0.85670000
    52  H          0.83620000       0.45620000       0.14330000
    53  C          0.17264000       0.66623000       0.09193000
    54  C          0.82736000       0.33377000       0.90807000
    55  H          0.15540000       0.67040000       0.19080000
    56  H          0.84460000       0.32960000       0.80920000
    57  H          0.05260000       0.70610000       0.06490000
    58  H          0.94740000       0.29390000       0.93510000
    59  H          0.24240000       0.73360000       0.04470000
    60  H          0.75760000       0.26640000       0.95530000
