data_IPOREM
_symmetry_space_group_name_H-M    'P1'
_symmetry_Int_Tables_number       1
loop_
_symmetry_equiv_pos_site_id
_symmetry_equiv_pos_as_xyz
1 x,y,z
_cell_length_a                   8.35412
_cell_length_b                   9.00713
_cell_length_c                   9.48923
_cell_angle_alpha                71.4103
_cell_angle_beta                 80.6402
_cell_angle_gamma                62.9773
loop_
_atom_site_label
_atom_site_type_symbol
_atom_site_fract_x
_atom_site_fract_y
_atom_site_fract_z
     1  I          0.58991900       0.05964800       0.40764700
     2  I          0.52623900       0.15215800       0.70720700
     3  I          0.45521900       0.23798900       0.97620700
     4  N          0.51411200       0.48541100       0.21489000
     5  H          0.53620000       0.38260000       0.21420000
     6  C          0.57421400       0.57921400       0.10131100
     7  H          0.63810000       0.53420000       0.02310000
     8  N          0.35171300       0.80801400       0.55651000
     9  H          0.41440000       0.85950000       0.50150000
    10  C          0.54171500       0.74051500       0.10011200
    11  H          0.58640000       0.80680000       0.02320000
    12  C          0.43991500       0.80611400       0.21631100
    13  H          0.41380000       0.91850000       0.21480000
    14  C          0.09531500       0.94681400       0.41041200
    15  H          0.00070000       0.93350000       0.37610000
    16  H          0.12780000       0.02840000       0.33130000
    17  C          0.03481900       0.00871500       0.54931400
    18  H          0.94920000       0.96710000       0.60750000
    19  H          0.98020000       0.13450000       0.52410000
    20  C          0.20851700       0.93120000       0.63411500
    21  H          0.24050000       0.02130000       0.63470000
    22  H          0.19330000       0.86950000       0.73620000
    23  C          0.47220000       0.65020000       0.65831700
    24  H          0.55160000       0.57030000       0.60340000
    25  H          0.40280000       0.59830000       0.72920000
    26  H          0.54080000       0.67720000       0.70950000
    27  C          0.37621400       0.70651300       0.33471100
    28  C          0.42031400       0.54291300       0.33111100
    29  H          0.38540000       0.46980000       0.40970000
    30  C          0.25591400       0.77481400       0.45621100
    31  H          0.21340000       0.68840000       0.51650000
    32  I          0.00404900       0.83749900       0.05626700
    33  I          0.99210900       0.16300900       0.94560200
    34  I          0.94298100       0.58459800       0.78678700
    35  I          0.97876100       0.50574900       0.50312800
    36  I          0.03548900       0.42909800       0.21930700
