data_IPOSIP
_symmetry_space_group_name_H-M    'P1'
_symmetry_Int_Tables_number       1
loop_
_symmetry_equiv_pos_site_id
_symmetry_equiv_pos_as_xyz
1 x,y,z
_cell_length_a                   6.295413
_cell_length_b                   9.067518
_cell_length_c                   9.654719
_cell_angle_alpha                100.313
_cell_angle_beta                 92.773
_cell_angle_gamma                97.643
loop_
_atom_site_label
_atom_site_type_symbol
_atom_site_fract_x
_atom_site_fract_y
_atom_site_fract_z
     1  I          0.07585200       0.01563917       0.22014515
     2  I          0.92414800      -0.01563917       0.77985485
     3  F          0.32303000       0.25892180       0.05820190
     4  F          0.67697000       0.74107820       0.94179810
     5  F          0.35923000       0.75432820       0.11302180
     6  F          0.64077000       0.24567180       0.88697820
     7  C          0.33174000       0.00803000       0.09253000
     8  C          0.66826000      -0.00803000       0.90747000
     9  C          0.41005000       0.12953000       0.03093000
    10  C          0.58995000       0.87047000       0.96907000
    11  C          0.42644000       0.87757000       0.05833000
    12  C          0.57356000       0.12243000       0.94167000
    13  O          0.70183000       0.01322000       0.38292000
    14  O          0.29817000      -0.01322000       0.61708000
    15  N          0.26114000       0.36123000       0.69483000
    16  N          0.73886000       0.63877000       0.30517000
    17  N          0.57454000       0.19942000       0.53342000
    18  N          0.42546000       0.80058000       0.46658000
    19  H          0.48000000       0.21780000       0.59620000
    20  H          0.52000000       0.78220000       0.40380000
    21  C          0.06055000       0.53743000       0.82713000
    22  C          0.93945000       0.46257000       0.17287000
    23  H          0.05420000       0.61350000       0.90780000
    24  H          0.94580000       0.38650000       0.09220000
    25  C          0.88725000       0.49343000       0.72603000
    26  C          0.11275000       0.50657000       0.27397000
    27  H          0.76070000       0.53980000       0.73650000
    28  H          0.23930000       0.46020000       0.26350000
    29  C          0.90154000       0.38173000       0.61053000
    30  C          0.09846000       0.61827000       0.38947000
    31  C          0.09185000       0.31993000       0.59983000
    32  C          0.90815000       0.68007000       0.40017000
    33  H          0.10260000       0.24370000       0.52000000
    34  H          0.89740000       0.75630000       0.48000000
    35  C          0.24215000       0.46743000       0.80713000
    36  C          0.75785000       0.53257000       0.19287000
    37  H          0.35920000       0.49630000       0.87680000
    38  H          0.64080000       0.50370000       0.12320000
    39  C          0.71694000       0.32623000       0.49953000
    40  C          0.28306000       0.67377000       0.50047000
    41  H          0.63400000       0.41010000       0.49170000
    42  H          0.36600000       0.58990000       0.50830000
    43  H          0.77460000       0.29440000       0.40700000
    44  H          0.22540000       0.70560000       0.59300000
    45  C          0.58234000       0.05693000       0.47263000
    46  C          0.41766000       0.94307000       0.52737000
