data_IQEWIK
_symmetry_space_group_name_H-M    'P1'
_symmetry_Int_Tables_number       1
loop_
_symmetry_equiv_pos_site_id
_symmetry_equiv_pos_as_xyz
1 x,y,z
_cell_length_a                   5.4775
_cell_length_b                   11.9635
_cell_length_c                   19.2875
_cell_angle_alpha                95.1375
_cell_angle_beta                 93.2175
_cell_angle_gamma                96.1575
loop_
_atom_site_label
_atom_site_type_symbol
_atom_site_fract_x
_atom_site_fract_y
_atom_site_fract_z
     1  I          0.89446400       0.91003515       0.16260490
     2  I          0.10553600       0.08996485       0.83739510
     3  F          0.65343000       0.81684140       0.29543900
     4  F          0.34657000       0.18315860       0.70456100
     5  F          0.80083000       0.83390150       0.43146900
     6  F          0.19917000       0.16609850       0.56853100
     7  F          0.23863000       0.95106150       0.47839900
     8  F          0.76137000       0.04893850       0.52160100
     9  F          0.53113000       0.05294150       0.38745900
    10  F          0.46887000       0.94705850       0.61254100
    11  F          0.38973000       0.03553150       0.25117900
    12  F          0.61027000       0.96446850       0.74882100
    13  C          0.87265000       0.87602000       0.31661150
    14  C          0.12735000       0.12398000       0.68338850
    15  C          0.94546000       0.88472000       0.38655160
    16  C          0.05454000       0.11528000       0.61344840
    17  C          0.16686000       0.94452000       0.41053150
    18  C          0.83314000       0.05548000       0.58946850
    19  C          0.31355000      -0.00488000       0.36405160
    20  C          0.68645000       0.00488000       0.63594840
    21  C          0.23796000       0.98522000       0.29451150
    22  C          0.76204000       0.01478000       0.70548850
    23  C          0.01486000       0.92602000       0.26882150
    24  C         -0.01486000       0.07398000       0.73117850
    25  N          0.64495000       0.86772000       0.02989130
    26  N          0.35505000       0.13228000       0.97010870
    27  O          0.41066000       0.62734170       0.57191900
    28  O          0.58934000       0.37265830       0.42808100
    29  C          0.68336000       0.89062000       0.96498850
    30  C          0.31664000       0.10938000       0.03501150
    31  H          0.83430000       0.93280000       0.95690000
    32  H          0.16570000       0.06720000       0.04310000
    33  C          0.51676000       0.85662000       0.90833850
    34  C          0.48324000       0.14338000       0.09166150
    35  H          0.55440000       0.87550000       0.86300000
    36  H          0.44560000       0.12450000       0.13700000
    37  C          0.29276000       0.79442000       0.91848850
    38  C          0.70724000       0.20558000       0.08151150
    39  C          0.25156000       0.77212000       0.98667850
    40  C          0.74844000       0.22788000       0.01332150
    41  H          0.10190000       0.73060000      -0.00330000
    42  H          0.89810000       0.26940000       0.00330000
    43  C          0.42956000       0.81053000       0.04013160
    44  C          0.57044000       0.18947000       0.95986840
    45  H          0.39590000       0.79520000       0.08640000
    46  H          0.60410000       0.20480000       0.91360000
    47  C          0.10536000       0.75422000       0.86211850
    48  C          0.89464000       0.24578000       0.13788150
    49  H          0.96320000       0.70930000       0.87430000
    50  H          0.03680000       0.29070000       0.12570000
    51  C          0.11456000       0.77432000       0.79531850
    52  C          0.88544000       0.22568000       0.20468150
    53  H          0.25790000       0.81880000       0.78370000
    54  H          0.74210000       0.18120000       0.21630000
    55  C          0.93025000       0.73602000       0.73783850
    56  C          0.06975000       0.26398000       0.26216150
    57  C         -0.02315000       0.76132000       0.67028850
    58  C          0.02315000       0.23868000       0.32971150
    59  H          0.12890000       0.80350000       0.66300000
    60  H          0.87110000       0.19650000       0.33700000
    61  C          0.81215000       0.72802000       0.61339850
    62  C          0.18785000       0.27198000       0.38660150
    63  H          0.85040000       0.74680000       0.56810000
    64  H          0.14960000       0.25320000       0.43190000
    65  C          0.58865000       0.66622000       0.62385860
    66  C          0.41135000       0.33378000       0.37614140
    67  C          0.53634000       0.64032000       0.69064860
    68  C          0.46366000       0.35968000       0.30935140
    69  H          0.38410000       0.59830000       0.69770000
    70  H          0.61590000       0.40170000       0.30230000
    71  C          0.70164000       0.67472000       0.74648850
    72  C          0.29836000       0.32528000       0.25351150
    73  H          0.66130000       0.65690000       0.79180000
    74  H          0.33870000       0.34310000       0.20820000
    75  C          0.45285000       0.65883000       0.50324850
    76  C          0.54715000       0.34117000       0.49675150
    77  H          0.60380000       0.62900000       0.48700000
    78  H          0.39620000       0.37100000       0.51300000
    79  H          0.47610000       0.74210000       0.50400000
    80  H          0.52390000       0.25790000       0.49600000
    81  C          0.23525000       0.61122000       0.45440850
    82  C          0.76475000       0.38878000       0.54559150
    83  H          0.08740000       0.64560000       0.46900000
    84  H          0.91260000       0.35440000       0.53100000
    85  H          0.20400000       0.52870000       0.45710000
    86  H          0.79600000       0.47130000       0.54290000
    87  C          0.27995000       0.63422000       0.37961860
    88  C          0.72005000       0.36578000       0.62038140
    89  H          0.42880000       0.59990000       0.36570000
    90  H          0.57120000       0.40010000       0.63430000
    91  H          0.31360000       0.71680000       0.37770000
    92  H          0.68640000       0.28320000       0.62230000
    93  C          0.06625000       0.58862000       0.32717860
    94  C          0.93375000       0.41138000       0.67282140
    95  H          0.91920000       0.62540000       0.33970000
    96  H          0.08080000       0.37460000       0.66030000
    97  H          0.02800000       0.50650000       0.33040000
    98  H         -0.02800000       0.49350000       0.66960000
    99  C          0.11845000       0.60822000       0.25190860
   100  C          0.88155000       0.39178000       0.74809140
   101  H          0.26300000       0.56980000       0.23890000
   102  H          0.73700000       0.43020000       0.76110000
   103  H          0.16090000       0.69010000       0.24890000
   104  H          0.83910000       0.30990000       0.75110000
   105  C          0.90134000       0.56502000       0.19962850
   106  C          0.09866000       0.43498000       0.80037150
   107  H          0.84630000       0.48550000       0.20650000
   108  H          0.15370000       0.51450000       0.79350000
   109  H          0.76310000       0.60980000       0.20930000
   110  H          0.23690000       0.39020000       0.79070000
   111  C          0.96164000       0.57183000       0.12382850
   112  C          0.03836000       0.42817000       0.87617150
   113  H          0.03110000       0.64990000       0.11770000
   114  H          0.96890000       0.35010000       0.88230000
   115  H          0.08870000       0.52120000       0.11270000
   116  H          0.91130000       0.47880000       0.88730000
   117  C          0.73743000       0.53873000       0.07329830
   118  C          0.26257000       0.46127000       0.92670170
   119  H          0.66780000       0.46150000       0.07920000
   120  H          0.33220000       0.53850000       0.92080000
   121  H          0.78590000       0.54260000       0.02540000
   122  H          0.21410000       0.45740000       0.97460000
   123  H          0.61400000       0.59070000       0.08270000
   124  H          0.38600000       0.40930000       0.91730000
