data_IQIKUQ
_symmetry_space_group_name_H-M    'P1'
_symmetry_Int_Tables_number       1
loop_
_symmetry_equiv_pos_site_id
_symmetry_equiv_pos_as_xyz
1 x,y,z
_cell_length_a                   7.05514
_cell_length_b                   7.57546
_cell_length_c                   10.71437
_cell_angle_alpha                105.8696
_cell_angle_beta                 96.2175
_cell_angle_gamma                97.6525
loop_
_atom_site_label
_atom_site_type_symbol
_atom_site_fract_x
_atom_site_fract_y
_atom_site_fract_z
     1  O          0.78153000       0.78773000       0.03225170
     2  O          0.21847000       0.21227000       0.96774830
     3  H          0.69710000       0.75710000       0.07290000
     4  H          0.30290000       0.24290000       0.92710000
     5  O          0.02872000       0.94183000       0.64300180
     6  O          0.97128000       0.05817000       0.35699820
     7  O          0.76433000      -0.01537000       0.52969180
     8  O          0.23567000       0.01537000       0.47030820
     9  C          0.53033000       0.88643000       0.69682000
    10  C          0.46967000       0.11357000       0.30318000
    11  H          0.47440000       0.91010000       0.62170000
    12  H          0.52560000       0.08990000       0.37830000
    13  C          0.69814000       0.81893000       0.92182000
    14  C          0.30186000       0.18107000       0.07818000
    15  C          0.81673000       0.86703000       0.83632000
    16  C          0.18327000       0.13297000       0.16368000
    17  H          0.95030000       0.87720000       0.85420000
    18  H          0.04970000       0.12280000       0.14580000
    19  C          0.49834000       0.80373000       0.89402000
    20  C          0.50166000       0.19627000       0.10598000
    21  H          0.42040000       0.76990000       0.95120000
    22  H          0.57960000       0.23010000       0.04880000
    23  C          0.85063000       0.94483000       0.62722000
    24  C          0.14937000       0.05517000       0.37278000
    25  C          0.72993000       0.89963000       0.72322000
    26  C          0.27007000       0.10037000       0.27678000
    27  C          0.41504000       0.83774000       0.78332000
    28  C          0.58496000       0.16226000       0.21668000
    29  H          0.28140000       0.82820000       0.76620000
    30  H          0.71860000       0.17180000       0.23380000
    31  H          0.83360000       0.00670000       0.47040000
    32  H          0.16640000      -0.00670000       0.52960000
    33  F          0.19182000       0.66492000       0.06209130
    34  F          0.80818000       0.33508000       0.93790870
    35  O          0.54912000       0.65692000       0.19681160
    36  O          0.45088000       0.34308000       0.80318840
    37  O          0.25122000       0.48992000       0.51411150
    38  O          0.74878000       0.51008000       0.48588850
    39  N          0.39673000       0.57753000       0.35535180
    40  N          0.60327000       0.42247000       0.64464820
    41  N          0.06603000       0.55193000       0.34922180
    42  N          0.93397000       0.44807000       0.65077820
    43  C          0.04793000       0.59413000       0.23202000
    44  C          0.95207000       0.40587000       0.76798000
    45  H          0.92670000       0.59940000       0.19070000
    46  H          0.07330000       0.40060000       0.80930000
    47  C          0.23713000       0.53663000       0.41182000
    48  C          0.76287000       0.46337000       0.58818000
    49  C          0.39733000       0.62413000       0.23912000
    50  C          0.60267000       0.37587000       0.76088000
    51  C          0.20593000       0.62763000       0.17812000
    52  C          0.79407000       0.37237000       0.82188000
    53  H          0.50340000       0.56240000       0.39420000
    54  H          0.49660000       0.43760000       0.60580000
    55  H          0.96350000       0.53340000       0.38430000
    56  H          0.03650000       0.46660000       0.61570000
