data_IQILEB
_symmetry_space_group_name_H-M    'P1'
_symmetry_Int_Tables_number       1
loop_
_symmetry_equiv_pos_site_id
_symmetry_equiv_pos_as_xyz
1 x,y,z
_cell_length_a                   6.86834
_cell_length_b                   7.40655
_cell_length_c                   12.45169
_cell_angle_alpha                106.7866
_cell_angle_beta                 91.7185
_cell_angle_gamma                92.2746
loop_
_atom_site_label
_atom_site_type_symbol
_atom_site_fract_x
_atom_site_fract_y
_atom_site_fract_z
     1  F          0.20102140       0.93106130       0.13966800
     2  F          0.79897860       0.06893870       0.86033200
     3  O          0.25264160       0.52901160       0.50636100
     4  O          0.74735840       0.47098840       0.49363900
     5  N          0.06615190       0.31470180       0.37069120
     6  N          0.93384810       0.68529820       0.62930880
     7  H          0.96410000       0.36820000       0.40070000
     8  H          0.03590000       0.63180000       0.59930000
     9  N          0.40072000       0.29919180       0.37727120
    10  N          0.59928000       0.70080820       0.62272880
    11  H          0.51340000       0.33950000       0.40900000
    12  H          0.48660000       0.66050000       0.59100000
    13  O          0.87152830       0.10851160       0.23430100
    14  O          0.12847170       0.89148840       0.76569900
    15  C          0.38912000       0.14662000       0.28285140
    16  C          0.61088000       0.85338000       0.71714860
    17  H          0.50190000       0.09000000       0.25350000
    18  H          0.49810000       0.91000000       0.74650000
    19  C          0.03482000       0.16162000       0.27448140
    20  C          0.96518000       0.83838000       0.72551860
    21  C          0.21562000       0.07982000       0.23340140
    22  C          0.78438000       0.92018000       0.76659860
    23  C          0.24152000       0.38832000       0.42211140
    24  C          0.75848000       0.61168000       0.57788860
    25  O          0.04291190       0.19307170       0.61012110
    26  O          0.95708810       0.80692830       0.38987890
    27  O          0.25342000      -0.01489180       0.52069120
    28  O          0.74658000       0.01489180       0.47930880
    29  C          0.46003000       0.66112000       0.91531150
    30  C          0.53997000       0.33888000       0.08468850
    31  H          0.33010000       0.69240000       0.92060000
    32  H          0.66990000       0.30760000       0.07940000
    33  C          0.79133000       0.72502000       0.98602150
    34  C          0.20867000       0.27498000       0.01397850
    35  H          0.88410000       0.79720000       0.03840000
    36  H          0.11590000       0.20280000       0.96160000
    37  C          0.21213000       0.13762000       0.59673160
    38  C          0.78787000       0.86238000       0.40326840
    39  C          0.70963000       0.46442000       0.82208150
    40  C          0.29037000       0.53558000       0.17791850
    41  H          0.74860000       0.36290000       0.76460000
    42  H          0.25140000       0.63710000       0.23540000
    43  C          0.36003000       0.39382000       0.75080160
    44  C          0.63997000       0.60618000       0.24919840
    45  H          0.23400000       0.43490000       0.76220000
    46  H          0.76600000       0.56510000       0.23780000
    47  C          0.84643000       0.57283000       0.90020160
    48  C          0.15357000       0.42717000       0.09979840
    49  H          0.97680000       0.54320000       0.89510000
    50  H          0.02320000       0.45680000       0.10490000
    51  C          0.59823000       0.76862000      -0.00683850
    52  C          0.40177000       0.23138000       0.00683850
    53  H          0.56050000       0.87070000       0.05060000
    54  H          0.43950000       0.12930000       0.94940000
    55  C          0.37973000       0.24072000       0.66602160
    56  C          0.62027000       0.75928000       0.33397840
    57  H          0.50380000       0.19730000       0.64990000
    58  H          0.49620000       0.80270000       0.35010000
    59  C          0.51303000       0.50632000       0.82891150
    60  C          0.48697000       0.49368000       0.17108850
    61  H          0.13530000       0.91860000       0.47520000
    62  H          0.86470000       0.08140000       0.52480000
