data_IQIMEA
_symmetry_space_group_name_H-M    'P1'
_symmetry_Int_Tables_number       1
loop_
_symmetry_equiv_pos_site_id
_symmetry_equiv_pos_as_xyz
1 x,y,z
_cell_length_a                   12.58222
_cell_length_b                   13.16594
_cell_length_c                   17.27706
_cell_angle_alpha                69.8831
_cell_angle_beta                 70.5601
_cell_angle_gamma                68.3531
loop_
_atom_site_label
_atom_site_type_symbol
_atom_site_fract_x
_atom_site_fract_y
_atom_site_fract_z
     1  P          0.43823150       0.90341140       0.20381100
     2  P          0.56176850       0.09658860       0.79618900
     3  C          0.40216000       0.87145000       0.31744000
     4  C          0.59784000       0.12855000       0.68256000
     5  C          0.47126000       0.77685000       0.36514000
     6  C          0.52874000       0.22315000       0.63486000
     7  C          0.58516000       0.82475000       0.16334000
     8  C          0.41484000       0.17525000       0.83666000
     9  C          0.42456000       0.04985000       0.16664000
    10  C          0.57544000       0.95015000       0.83336000
    11  C          0.72878000       0.64837000       0.14745000
    12  C          0.27122000       0.35163000       0.85255000
    13  C          0.78257000       0.81828000       0.07995000
    14  C          0.21743000       0.18172000       0.92005000
    15  C          0.37777000       0.85166000       0.08564000
    16  C          0.62223000       0.14834000       0.91436000
    17  C          0.18366000       0.86235000       0.08984000
    18  C          0.81634000       0.13765000       0.91016000
    19  C          0.34437000       0.82776000       0.49314000
    20  C          0.65563000       0.17224000       0.50686000
    21  C          0.33996000       0.87425000       0.16574000
    22  C          0.66004000       0.12575000       0.83426000
    23  C          0.30497000       0.94256000       0.35854000
    24  C          0.69503000       0.05744000       0.64146000
    25  C          0.27627000       0.92087000       0.44695000
    26  C          0.72373000       0.07913000       0.55305000
    27  C          0.44066000       0.75506000       0.45444000
    28  C          0.55934000       0.24494000       0.54556000
    29  C          0.22297000       0.88796000       0.20715000
    30  C          0.77703000       0.11204000       0.79285000
    31  C          0.81028000       0.70268000       0.09845000
    32  C          0.18972000       0.29732000       0.90155000
    33  C          0.40427000       0.27966000       0.11075000
    34  C          0.59573000       0.72034000       0.88925000
    35  C          0.35726000       0.12136000       0.10694000
    36  C          0.64274000       0.87864000       0.89306000
    37  C          0.61517000       0.70896000       0.17954000
    38  C          0.38483000       0.29104000       0.82046000
    39  C          0.14397000       0.88186000       0.17035000
    40  C          0.85603000       0.11814000       0.82965000
    41  C          0.48146000       0.09705000       0.19684000
    42  C          0.51854000       0.90295000       0.80316000
    43  C          0.30087000       0.84456000       0.04885000
    44  C          0.69913000       0.15544000       0.95115000
    45  C          0.47226000       0.21156000       0.16834000
    46  C          0.52774000       0.78844000       0.83166000
    47  C          0.66976000       0.87967000       0.11284000
    48  C          0.33024000       0.12033000       0.88716000
    49  C          0.34778000       0.23566000       0.08075000
    50  C          0.65222000       0.76434000       0.91925000
    51  H          0.54050000       0.72440000       0.34530000
    52  H          0.45950000       0.27560000       0.65470000
    53  H          0.45360000       0.84650000       0.06540000
    54  H          0.54640000       0.15350000       0.93460000
    55  H          0.32150000       0.81450000       0.55640000
    56  H          0.67850000       0.18550000       0.44360000
    57  H          0.73760000       0.58060000       0.15740000
    58  H          0.26240000       0.41940000       0.84260000
    59  H          0.31940000       0.09440000       0.08830000
    60  H          0.68060000       0.90560000       0.91170000
    61  H          0.13050000       0.86150000       0.06540000
    62  H          0.86950000       0.13850000       0.93460000
    63  H          0.50750000       0.25550000       0.18740000
    64  H          0.49250000       0.74450000       0.81260000
    65  H          0.33760000       0.84050000      -0.00640000
    66  H          0.66240000       0.15950000       0.00640000
    67  H          0.53760000       0.04760000       0.23440000
    68  H          0.46240000       0.95240000       0.76560000
    69  H          0.55750000       0.67150000       0.21140000
    70  H          0.44250000       0.32850000       0.78860000
    71  H          0.38950000       0.36150000       0.09330000
    72  H          0.61050000       0.63850000       0.90670000
    73  H          0.07060000       0.89250000       0.19640000
    74  H          0.92940000       0.10750000       0.80360000
    75  H          0.29670000       0.27860000       0.05650000
    76  H          0.70330000       0.72140000       0.94350000
    77  H          0.26860000       0.98550000       0.32740000
    78  H          0.73140000       0.01450000       0.67260000
    79  H          0.22070000       0.96060000       0.47550000
    80  H          0.77930000       0.03940000       0.52450000
    81  H          0.65650000       0.95950000       0.10240000
    82  H          0.34350000       0.04050000       0.89760000
    83  H          0.88280000       0.65770000       0.08450000
    84  H          0.11720000       0.34230000       0.91550000
    85  H          0.19380000       0.91370000       0.24550000
    86  H          0.80620000       0.08630000       0.75450000
    87  H          0.84570000       0.85160000       0.04750000
    88  H          0.15430000       0.14840000       0.95250000
    89  P          0.07568150       0.50607140       0.30399100
    90  P          0.92431850       0.49392860       0.69600900
    91  C          0.95714000       0.34336000       0.36854000
    92  C          0.04286000       0.65664000       0.63146000
    93  C          0.16056000       0.61486000       0.37254000
    94  C          0.83944000       0.38514000       0.62746000
    95  C          0.05105000       0.37505000       0.36884000
    96  C          0.94895000       0.62495000       0.63116000
    97  C          0.36187000       0.56116000       0.37685000
    98  C          0.63813000       0.43884000       0.62315000
    99  C          0.18477000       0.58246000       0.13704000
   100  C          0.81523000       0.41754000       0.86296000
   101  C          0.86384000       0.60116000       0.40464000
   102  C          0.13616000       0.39884000       0.59536000
   103  C          0.74084000       0.78746000       0.36155000
   104  C          0.25916000       0.21254000       0.63845000
   105  C          0.18646000       0.53255000       0.33114000
   106  C          0.81354000       0.46745000       0.66886000
   107  C          0.20908000       0.59416000       0.05105000
   108  C          0.79092000       0.40584000       0.94895000
   109  C          0.76403000       0.68806000       0.42245000
   110  C          0.23597000       0.31194000       0.57755000
   111  C          0.81503000       0.80206000       0.28215000
   112  C          0.18497000       0.19794000       0.71785000
   113  C          0.00347000       0.17746000       0.47654000
   114  C         -0.00347000       0.82254000       0.52346000
   115  C          0.12317000       0.30276000       0.42544000
   116  C          0.87683000       0.69724000       0.57456000
   117  C          0.94144000       0.61295000       0.32474000
   118  C          0.05856000       0.38705000       0.67526000
   119  C          0.12136000       0.51105000       0.19284000
   120  C          0.87864000       0.48895000       0.80716000
   121  C          0.38967000       0.48027000       0.33555000
   122  C          0.61033000       0.51973000       0.66445000
   123  C          0.24807000       0.63076000       0.39504000
   124  C          0.75193000       0.36924000       0.60496000
   125  C          0.16967000       0.53487000       0.02135000
   126  C          0.83033000       0.46513000       0.97865000
   127  C          0.91514000       0.71516000       0.26294000
   128  C          0.08486000       0.28484000       0.73706000
   129  C          0.93234000       0.24666000       0.42014000
   130  C          0.06766000       0.75334000       0.57986000
   131  C          0.30406000       0.46466000       0.31174000
   132  C          0.69594000       0.53534000       0.68826000
   133  C          0.10697000       0.46327000       0.07575000
   134  C          0.89303000       0.53673000       0.92425000
   135  C          0.08276000       0.44996000       0.16194000
   136  C          0.91724000       0.55004000       0.83806000
   137  C          0.09547000       0.20516000       0.47875000
   138  C          0.90453000       0.79484000       0.52125000
   139  H          0.21340000       0.62340000       0.15230000
   140  H          0.78660000       0.37660000       0.84770000
   141  H          0.41350000       0.57540000       0.38130000
   142  H          0.58650000       0.42460000       0.61870000
   143  H          0.08260000       0.66250000       0.38640000
   144  H          0.91740000       0.33750000       0.61360000
   145  H          0.87750000       0.53450000       0.44440000
   146  H          0.12250000       0.46550000       0.55560000
   147  H          0.32260000       0.40650000       0.28140000
   148  H          0.67740000       0.59350000       0.71860000
   149  H          0.97450000       0.11840000       0.51530000
   150  H          0.02550000       0.88160000       0.48470000
   151  H          0.67350000       0.85850000       0.37740000
   152  H          0.32650000       0.14150000       0.62260000
   153  H          0.04360000       0.40550000       0.19540000
   154  H          0.95640000       0.59450000       0.80460000
   155  H          0.08560000       0.42150000       0.06140000
   156  H          0.91440000       0.57850000       0.93860000
   157  H          0.23450000       0.68150000       0.42140000
   158  H          0.76550000       0.31850000       0.57860000
   159  H          0.26060000       0.63560000       0.01340000
   160  H          0.73940000       0.36440000       0.98660000
   161  H          0.91050000       0.38850000       0.34840000
   162  H          0.08950000       0.61150000       0.65160000
   163  H          0.18670000       0.53860000       0.97050000
   164  H          0.81330000       0.46140000       0.02950000
   165  H          0.95850000       0.72450000       0.20940000
   166  H          0.04150000       0.27550000       0.79060000
   167  H          0.45670000       0.43460000       0.32850000
   168  H          0.54330000       0.56540000       0.67150000
   169  H          0.85740000       0.22350000       0.42440000
   170  H          0.14260000       0.77650000       0.57560000
   171  H          0.80350000       0.87350000       0.23840000
   172  H          0.19650000       0.12650000       0.76160000
   173  H          0.12670000       0.18360000       0.51050000
   174  H          0.87330000       0.81640000       0.48950000
   175  H          0.71330000       0.67260000       0.47250000
   176  H          0.28670000       0.32740000       0.52750000
   177  H          0.19070000       0.31460000       0.41250000
   178  H          0.80930000       0.68540000       0.58750000
   179  P          0.88997820       0.03568160       0.32729110
   180  P          0.11002180       0.96431840       0.67270890
   181  P          0.99598830       0.14356160       0.24327120
   182  P          0.00401170       0.85643840       0.75672880
   183  P          0.73900830       0.10664160       0.27177120
   184  P          0.26099170       0.89335840       0.72822880
   185  P          0.82498000       0.10832000       0.13864120
   186  P          0.17502000       0.89168000       0.86135880
   187  H          0.88020000       0.02680000       0.12650000
   188  H          0.11980000       0.97320000       0.87350000
   189  P          0.69507820       0.28607160       0.25682120
   190  P          0.30492180       0.71392840       0.74317880
   191  P          0.96036820       0.18711160       0.11502110
   192  P          0.03963180       0.81288840       0.88497890
   193  P          0.86576820       0.30769150       0.19803120
   194  P          0.13423180       0.69230850       0.80196880
   195  N          0.50619000       0.50751000       0.10097000
   196  N          0.49381000       0.49249000       0.89903000
   197  H          0.48660000       0.56960000       0.10640000
   198  H          0.51340000       0.43040000       0.89360000
   199  H          0.53370000       0.44760000       0.12050000
   200  H          0.46630000       0.55240000       0.87950000
   201  H          0.55310000       0.50890000       0.05170000
   202  H          0.44690000       0.49110000       0.94830000
   203  N          0.64664000       0.49357000       0.38346000
   204  N          0.35336000       0.50643000       0.61654000
   205  H          0.69920000       0.54470000       0.35650000
   206  H          0.30080000       0.45530000       0.64350000
   207  H          0.67430000       0.43270000       0.36450000
   208  H          0.32570000       0.56730000       0.63550000
   209  H          0.68789000       0.47610000       0.41480000
   210  H          0.31211000       0.52390000       0.58520000
   211  N          0.57929000       0.84451000       0.57826000
   212  N          0.42071000       0.15549000       0.42174000
   213  H          0.61513000       0.90212000       0.55590000
   214  H          0.38487000       0.09788000       0.44410000
   215  H          0.52611000       0.92110000       0.56670000
   216  H          0.47389000       0.07890000       0.43330000
   217  H          0.51790000       0.82480000       0.60360000
   218  H          0.48210000       0.17520000       0.39640000
