data_IQUNUE
_symmetry_space_group_name_H-M    'P1'
_symmetry_Int_Tables_number       1
loop_
_symmetry_equiv_pos_site_id
_symmetry_equiv_pos_as_xyz
1 x,y,z
_cell_length_a                   7.88352
_cell_length_b                   9.59233
_cell_length_c                   12.05993
_cell_angle_alpha                69.735012
_cell_angle_beta                 75.16501
_cell_angle_gamma                77.65501
loop_
_atom_site_label
_atom_site_type_symbol
_atom_site_fract_x
_atom_site_fract_y
_atom_site_fract_z
     1  C          0.26924900       0.20329800       0.11687700
     2  C          0.73075100       0.79670200       0.88312300
     3  C          0.46410900       0.31329800       0.14472700
     4  C          0.53589100       0.68670200       0.85527300
     5  C          0.31686900       0.42698800       0.14571700
     6  C          0.68313100       0.57301200       0.85428300
     7  C          0.32869100       0.56098900       0.16384700
     8  C          0.67130900       0.43901100       0.83615300
     9  H          0.23040000       0.63810000       0.16350000
    10  H          0.76960000       0.36190000       0.83650000
    11  C          0.48915100       0.57666900       0.18228800
    12  C          0.51084900       0.42333100       0.81771200
    13  H          0.50000000       0.66570000       0.19610000
    14  H          0.50000000       0.33430000       0.80390000
    15  C          0.63649100       0.46394900       0.18105800
    16  C          0.36350900       0.53605100       0.81894200
    17  H          0.74470000       0.47870000       0.19360000
    18  H          0.25530000       0.52130000       0.80640000
    19  C          0.62623100       0.33220900       0.16191800
    20  C          0.37376900       0.66779100       0.83808200
    21  H          0.72600000       0.25670000       0.16040000
    22  H          0.27400000       0.74330000       0.83960000
    23  C          0.25483100       0.07404900       0.94338300
    24  C          0.74516900       0.92595100       0.05661700
    25  H          0.38490000       0.07290000       0.92040000
    26  H          0.61510000       0.92710000       0.07960000
    27  H          0.22820000       0.98540000       0.93010000
    28  H          0.77180000       0.01460000       0.06990000
    29  C          0.16962100       0.21406900       0.85922300
    30  C          0.83037900       0.78593100       0.14077700
    31  C          0.23817100       0.24078900       0.72757300
    32  C          0.76182900       0.75921100       0.27242700
    33  C          0.37509110       0.14215100       0.68338200
    34  C          0.62490890       0.85784900       0.31661800
    35  H          0.42420000       0.05380000       0.73770000
    36  H          0.57580000       0.94620000       0.26230000
    37  C          0.43895120       0.17408110       0.55959200
    38  C          0.56104880       0.82591890       0.44040800
    39  H          0.53200000       0.10740000       0.52940000
    40  H          0.46800000       0.89260000       0.47060000
    41  C          0.36690140       0.30313120       0.48018100
    42  C          0.63309860       0.69686880       0.51981900
    43  H          0.41040000       0.32430000       0.39580000
    44  H          0.58960000       0.67570000       0.60420000
    45  N          0.43268800       0.18609700       0.12764600
    46  N          0.56731200       0.81390300       0.87235400
    47  O         -0.00065700       0.07252700       0.13664600
    48  O          0.00065700       0.92747300       0.86335400
    49  O          0.29164800       0.91616300       0.15833600
    50  O          0.70835200       0.08383700       0.84166400
    51  O          0.05308800       0.30152700       0.89816400
    52  O          0.94691200       0.69847300       0.10183600
    53  S          0.13715200       0.37098200       0.12213418
    54  S          0.86284800       0.62901800       0.87786582
    55  S          0.18936200       0.05338200       0.10003517
    56  S          0.81063800       0.94661800       0.89996483
    57  C          0.16598120       0.37080100       0.64709200
    58  C          0.83401880       0.62919900       0.35290800
    59  H          0.07270000       0.43770000       0.67680000
    60  H          0.92730000       0.56230000       0.32320000
    61  C          0.23092140       0.40181120       0.52381100
    62  C          0.76907860       0.59818880       0.47618900
    63  H          0.18260000       0.49030000       0.46920000
    64  H          0.81740000       0.50970000       0.53080000
    65  O          0.12730100       0.04470900       0.39203700
    66  O          0.87269900       0.95529100       0.60796300
    67  C          0.06813150       0.90126870       0.43237900
    68  C          0.93186850       0.09873130       0.56762100
    69  C          0.98973850       0.15036130       0.43168900
    70  C          0.01026150       0.84963870       0.56831100
    71  H          0.89080000       0.16411700       0.39381400
    72  H          0.10920000       0.83588300       0.60618600
    73  H          0.96780000       0.90788200       0.39601400
    74  H          0.03220000       0.09211800       0.60398600
    75  H          0.16920000       0.83218300       0.40471400
    76  H          0.83080000       0.16781700       0.59528600
    77  H          0.03820000       0.24461800       0.40401400
    78  H          0.96180000       0.75538200       0.59598600
