data_IRAMEV
_symmetry_space_group_name_H-M    'P1'
_symmetry_Int_Tables_number       1
loop_
_symmetry_equiv_pos_site_id
_symmetry_equiv_pos_as_xyz
1 x,y,z
_cell_length_a                   4.58152
_cell_length_b                   25.71916
_cell_length_c                   11.93266
_cell_angle_alpha                90.0
_cell_angle_beta                 93.1064
_cell_angle_gamma                90.0
loop_
_atom_site_label
_atom_site_type_symbol
_atom_site_fract_x
_atom_site_fract_y
_atom_site_fract_z
     1  C          0.44063000       0.75774500       0.95952120
     2  C          0.05937000       0.25774500       0.54047880
     3  C          0.55937000       0.24225500       0.04047880
     4  C          0.94063000       0.74225500       0.45952120
     5  C          0.51104000       0.78677600       0.05676130
     6  C         -0.01104000       0.28677600       0.44323870
     7  C          0.48896000       0.21322400       0.94323870
     8  C          0.01104000       0.71322400       0.55676130
     9  H          0.43240000       0.77750000       0.12420000
    10  H          0.06760000       0.27750000       0.37580000
    11  H          0.56760000       0.22250000       0.87580000
    12  H          0.93240000       0.72250000       0.62420000
    13  C          0.69384000       0.82844600       0.05302140
    14  C          0.80616000       0.32844600       0.44697860
    15  C          0.30616000       0.17155400       0.94697860
    16  C          0.19384000       0.67155400       0.55302140
    17  H          0.73870000       0.84750000       0.11780000
    18  H          0.76130000       0.34750000       0.38220000
    19  H          0.26130000       0.15250000       0.88220000
    20  H          0.23870000       0.65250000       0.61780000
    21  C          0.81363000       0.84258600       0.95280140
    22  C          0.68637000       0.34258600       0.54719860
    23  C          0.18637000       0.15741400       0.04719860
    24  C          0.31363000       0.65741400       0.45280140
    25  H          0.93720000       0.87120000       0.95110000
    26  H          0.56280000       0.37120000       0.54890000
    27  H          0.06280000       0.12880000       0.04890000
    28  H          0.43720000       0.62880000       0.45110000
    29  C          0.75103000       0.81454600       0.85609130
    30  C          0.74897000       0.31454600       0.64390870
    31  C          0.24897000       0.18545400       0.14390870
    32  C          0.25103000       0.68545400       0.35609130
    33  C          0.56273000       0.77161500       0.85856120
    34  C          0.93727000       0.27161500       0.64143880
    35  C          0.43727000       0.22838500       0.14143880
    36  C          0.06273000       0.72838500       0.35856120
    37  C          0.24463000       0.71393600       0.96612120
    38  C          0.25537000       0.21393600       0.53387880
    39  C          0.75537000       0.28606400       0.03387880
    40  C          0.74463000       0.78606400       0.46612120
    41  H          0.16710000       0.70640000       0.03470000
    42  H          0.33290000       0.20640000       0.46530000
    43  H          0.83290000       0.29360000       0.96530000
    44  H          0.66710000       0.79360000       0.53470000
    45  C         -0.00093000       0.64032500       0.89572120
    46  C          0.50093000       0.14032500       0.60427880
    47  C          0.00093000       0.35967500       0.10427880
    48  C          0.49907000       0.85967500       0.39572120
    49  C          0.00613000       0.61053600      -0.00727870
    50  C          0.49387000       0.11053600       0.50727870
    51  C         -0.00613000       0.38946400       0.00727870
    52  C          0.50613000       0.88946400       0.49272130
    53  H          0.12240000       0.62050000       0.05540000
    54  H          0.37760000       0.12050000       0.44460000
    55  H          0.87760000       0.37950000       0.94460000
    56  H          0.62240000       0.87950000       0.55540000
    57  C          0.83906000       0.56603600      -0.00467860
    58  C          0.66094000       0.06603600       0.50467860
    59  C          0.16094000       0.43396400       0.00467860
    60  C          0.33906000       0.93396400       0.49532140
    61  H          0.84010000       0.54570000       0.05980000
    62  H          0.65990000       0.04570000       0.44020000
    63  H          0.15990000       0.45430000       0.94020000
    64  H          0.34010000       0.95430000       0.55980000
    65  C          0.67166000       0.55227600       0.90156140
    66  C          0.82834000       0.05227600       0.59843860
    67  C          0.32834000       0.44772400       0.09843860
    68  C          0.17166000       0.94772400       0.40156140
    69  H          0.56150000       0.52200000       0.90340000
    70  H          0.93850000       0.02200000       0.59660000
    71  H          0.43850000       0.47800000       0.09660000
    72  H          0.06150000       0.97800000       0.40340000
    73  C          0.82207000       0.62330600       0.80550130
    74  C          0.67793000       0.12330600       0.69449870
    75  C          0.17793000       0.37669400       0.19449870
    76  C          0.32207000       0.87669400       0.30550130
    77  H          0.81610000       0.64280000       0.73980000
    78  H          0.68390000       0.14280000       0.76020000
    79  H          0.18390000       0.35720000       0.26020000
    80  H          0.31610000       0.85720000       0.23980000
    81  C          0.04534000       0.86848900       0.74673190
    82  C          0.45466000       0.36848900       0.75326810
    83  C          0.95466000       0.13151100       0.25326810
    84  C          0.54534000       0.63151100       0.24673190
    85  H          0.93940000       0.89970000       0.76140000
    86  H          0.56060000       0.39970000       0.73860000
    87  H          0.06060000       0.10030000       0.23860000
    88  H          0.43940000       0.60030000       0.26140000
    89  H          0.11850000       0.87020000       0.67290000
    90  H          0.38150000       0.37020000       0.82710000
    91  H          0.88150000       0.12980000       0.32710000
    92  H          0.61850000       0.62980000       0.17290000
    93  H          0.20590000       0.86490000       0.80130000
    94  H          0.29410000       0.36490000       0.69870000
    95  H          0.79410000       0.13510000       0.19870000
    96  H          0.70590000       0.63510000       0.30130000
    97  N          0.17303000       0.68507500       0.88153100
    98  N          0.32697000       0.18507500       0.61846900
    99  N          0.82697000       0.31492500       0.11846900
   100  N          0.67303000       0.81492500       0.38153100
   101  N          0.65997000       0.58045500       0.80781110
   102  N          0.84003000       0.08045500       0.69218890
   103  N          0.34003000       0.41954500       0.19218890
   104  N          0.15997000       0.91954500       0.30781110
   105  O          0.50513000       0.74557500       0.76203900
   106  O         -0.00513000       0.24557500       0.73796100
   107  O          0.49487000       0.25442500       0.23796100
   108  O          0.00513000       0.75442500       0.26203900
   109  O          0.85613000       0.82493500       0.75352100
   110  O          0.64387000       0.32493500       0.74647900
   111  O          0.14387000       0.17506500       0.24647900
   112  O          0.35613000       0.67506500       0.25352100
   113  H          0.38050000       0.72189000       0.77671800
   114  H          0.11950000       0.22189000       0.72328200
   115  H          0.61950000       0.27811000       0.22328200
   116  H          0.88050000       0.77811000       0.27671800
   117  C          0.18926000       0.50386600       0.65013140
   118  C          0.31074000       0.00386600       0.84986860
   119  C          0.81074000       0.49613400       0.34986860
   120  C          0.68926000      -0.00386600       0.15013140
   121  C          0.02515000       0.48219700       0.54852160
   122  C          0.47485000       0.98219700       0.95147840
   123  C         -0.02515000       0.51780300       0.45147840
   124  C          0.52515000       0.01780300       0.04852160
   125  O          0.18117000       0.48443500       0.74139110
   126  O          0.31883000       0.98443500       0.75860890
   127  O          0.81883000       0.51556500       0.25860890
   128  O          0.68117000       0.01556500       0.24139110
   129  O          0.34787000       0.54510500       0.62982110
   130  O          0.15213000       0.04510500       0.87017890
   131  O          0.65213000       0.45489500       0.37017890
   132  O          0.84787000       0.95489500       0.12982110
   133  H          0.45540000       0.55601000       0.69920000
   134  H          0.04460000       0.05601000       0.80080000
   135  H          0.54460000       0.44399000       0.30080000
   136  H          0.95540000       0.94399000       0.19920000
   137  H          0.85440000       0.46521100       0.57420000
   138  H          0.64560000       0.96521100       0.92580000
   139  H          0.14560000       0.53478900       0.42580000
   140  H          0.35440000       0.03478900       0.07420000
   141  H          0.12530000       0.45081200       0.52820000
   142  H          0.37470000       0.95081200       0.97180000
   143  H          0.87470000       0.54918800       0.47180000
   144  H          0.62530000       0.04918800       0.02820000
