data_IREREE
_symmetry_space_group_name_H-M    'P1'
_symmetry_Int_Tables_number       1
loop_
_symmetry_equiv_pos_site_id
_symmetry_equiv_pos_as_xyz
1 x,y,z
_cell_length_a                   8.11858
_cell_length_b                   8.29968
_cell_length_c                   8.89989
_cell_angle_alpha                100.9115
_cell_angle_beta                 106.9315
_cell_angle_gamma                117.9524
loop_
_atom_site_label
_atom_site_type_symbol
_atom_site_fract_x
_atom_site_fract_y
_atom_site_fract_z
     1  Br         0.22327800       0.04752800       0.51218700
     2  O          0.53597000       0.94633000       0.71086000
     3  O          0.60806000       0.18326000       0.93755000
     4  O          0.83351000       0.82582000       0.62697000
     5  O          0.92252000       0.09747000       0.82667000
     6  H          0.79250000       0.04210000       0.77790000
     7  C         -0.03551100      -0.01831100       0.74718000
     8  C          0.19621000       0.06639000       0.82768000
     9  H          0.27500000       0.21080000       0.85690000
    10  H          0.23300000       0.04440000       0.93460000
    11  C          0.26011000      -0.02361000       0.71408000
    12  H          0.16980000       0.82930000       0.67490000
    13  C          0.48899000       0.04389000       0.79548000
    14  Cl         0.62718000       0.64738000       0.18585160
    15  O          0.31173000       0.74043000      -0.00504000
    16  O          0.24133000       0.50224000       0.77065000
    17  O          0.01157000       0.85903000       0.07836000
    18  O          0.91922000       0.58301000       0.87726000
    19  H          0.04750000       0.62989000       0.92490000
    20  C          0.35901000       0.64192000       0.90808000
    21  C          0.58671000       0.70881000      -0.00632000
    22  H          0.67760000       0.85550000       0.03020000
    23  C          0.64949000       0.61379000       0.88018000
    24  H          0.60980000       0.63070000       0.77090000
    25  H          0.57220000       0.47020000       0.85510000
    26  C          0.88041000       0.69971000       0.95868000
    27  N          0.58121000       0.07048000       0.28797000
    28  H          0.49489000       0.96320000       0.20080000
    29  N          0.84042000       0.29668000       0.52536000
    30  H          0.94130000       0.34690000       0.61850000
    31  C          0.74188900       0.10991000       0.42038000
    32  H          0.78010000       0.02030000       0.43730000
    33  C          0.73708900       0.37801000       0.45698000
    34  H          0.77280000       0.50850000       0.50660000
    35  C          0.57858800       0.23931100       0.30879000
    36  H          0.48180000       0.25310000       0.23150000
    37  N          0.26878000       0.61892000       0.41246000
    38  H          0.34210000       0.72640000       0.49270000
    39  N          0.00718000       0.38592000       0.17657000
    40  H          0.88440000       0.32710000       0.10470000
    41  C          0.10101100       0.57229000       0.28258000
    42  H          0.05530000       0.65710000       0.26740000
    43  C          0.11811000       0.31199000       0.24088000
    44  H          0.08640000       0.18290000       0.19210000
    45  C          0.28481000       0.46159000       0.38998000
    46  H          0.39150000       0.45590000       0.46360000
