data_IRUDOP
_symmetry_space_group_name_H-M    'P1'
_symmetry_Int_Tables_number       1
loop_
_symmetry_equiv_pos_site_id
_symmetry_equiv_pos_as_xyz
1 x,y,z
_cell_length_a                   6.94988
_cell_length_b                   8.510711
_cell_length_c                   11.202512
_cell_angle_alpha                100.22512
_cell_angle_beta                 98.24611
_cell_angle_gamma                95.32911
loop_
_atom_site_label
_atom_site_type_symbol
_atom_site_fract_x
_atom_site_fract_y
_atom_site_fract_z
     1  Cl         0.84598600       0.03186500       0.10171400
     2  Cl         0.15401400       0.96813500       0.89828600
     3  Cl         0.14952600       0.72800500       0.14641400
     4  Cl         0.85047400       0.27199500       0.85358600
     5  N          0.51032000       0.08865180       0.36195130
     6  N          0.48968000       0.91134820       0.63804870
     7  N          0.81572000       0.21632000       0.35238170
     8  N          0.18428000       0.78368000       0.64761830
     9  H          0.81130000       0.27920000       0.41781800
    10  H          0.18870000       0.72080000       0.58218200
    11  H          0.90440000       0.22530000       0.30920000
    12  H          0.09560000       0.77470000       0.69080000
    13  N          0.20742000       0.96788000       0.38187170
    14  N          0.79258000       0.03212000       0.61812830
    15  H          0.21430000       0.03620000       0.44651800
    16  H          0.78570000       0.96380000       0.55348200
    17  H          0.10830000       0.90270000       0.34920000
    18  H          0.89170000       0.09730000       0.65080000
    19  C          0.66092000       0.10442000       0.29946170
    20  C          0.33908000       0.89558000       0.70053830
    21  C          0.65532000       0.00712000       0.18331160
    22  C          0.34468000      -0.00712000       0.81668840
    23  C          0.49852000       0.89128000       0.13462170
    24  C          0.50148000       0.10872000       0.86537830
    25  H          0.49230000       0.82370000       0.05620000
    26  H          0.50770000       0.17630000       0.94380000
    27  C          0.34832000       0.87478000       0.20120170
    28  C          0.65168000       0.12522000       0.79879830
    29  C          0.35442000       0.97738000       0.31491160
    30  C          0.64558000       0.02262000       0.68508840
    31  Br         0.74777200       0.70166200       0.83922918
    32  Br         0.25222800       0.29833800       0.16077082
    33  Br         0.27004300       0.51793200       0.86935218
    34  Br         0.72995700       0.48206800       0.13064782
    35  O          0.80079190       0.47170170       0.58145130
    36  O          0.19920810       0.52829830       0.41854870
    37  O          0.20426180       0.22939160       0.61834130
    38  O          0.79573820       0.77060840       0.38165870
    39  N          0.49942000       0.32332190       0.56916150
    40  N          0.50058000       0.67667810       0.43083850
    41  H          0.50330000       0.24730000       0.50320000
    42  H          0.49670000       0.75270000       0.49680000
    43  C          0.65083000       0.44372000       0.62134170
    44  C          0.34917000       0.55628000       0.37865830
    45  C          0.58982000       0.53192000       0.73533170
    46  C          0.41018000       0.46808000       0.26466830
    47  C          0.41462000       0.46262000       0.74581170
    48  C          0.58538000       0.53738000       0.25418830
    49  C          0.35122000       0.32382000       0.63943170
    50  C          0.64878000       0.67618000       0.36056830
