data_IRUFIL
_symmetry_space_group_name_H-M    'P1'
_symmetry_Int_Tables_number       1
loop_
_symmetry_equiv_pos_site_id
_symmetry_equiv_pos_as_xyz
1 x,y,z
_cell_length_a                   7.18186
_cell_length_b                   7.83447
_cell_length_c                   11.645315
_cell_angle_alpha                101.97911
_cell_angle_beta                 101.51911
_cell_angle_gamma                97.2131
loop_
_atom_site_label
_atom_site_type_symbol
_atom_site_fract_x
_atom_site_fract_y
_atom_site_fract_z
     1  Cl         0.14126500       0.72303600       0.12998300
     2  Cl         0.85873500       0.27696400       0.87001700
     3  Cl         0.84661500       0.07390400       0.14271300
     4  Cl         0.15338500       0.92609600       0.85728700
     5  N          0.50352150       0.12000130       0.37200900
     6  N          0.49647850       0.87999870       0.62799100
     7  N          0.20640180       0.96868830       0.37419110
     8  N          0.79359820       0.03131170       0.62580890
     9  H          0.21230000       0.04120000       0.43721600
    10  H          0.78770000       0.95880000       0.56278400
    11  H          0.09630000       0.90570000       0.34051800
    12  H          0.90370000       0.09430000       0.65948200
    13  N          0.80392180       0.27631160       0.38142110
    14  N          0.19607820       0.72368840       0.61857890
    15  H          0.81030000       0.32320000       0.44711700
    16  H          0.18970000       0.67680000       0.55288300
    17  H          0.91530000       0.29530000       0.35221700
    18  H          0.08470000       0.70470000       0.64778300
    19  C          0.34867180      -0.00836160       0.31600110
    20  C          0.65132820       0.00836160       0.68399890
    21  C          0.34163180       0.88542850       0.20128110
    22  C          0.65836820       0.11457150       0.79871890
    23  C          0.49288190       0.91026840       0.14666110
    24  C          0.50711810       0.08973160       0.85333890
    25  H          0.48930000       0.84080000       0.07201500
    26  H          0.51070000       0.15920000       0.92798500
    27  C          0.65135180       0.04023160       0.20619110
    28  C          0.34864820       0.95976840       0.79380890
    29  C          0.65385180       0.14419160       0.32070110
    30  C          0.34614820       0.85580840       0.67929890
    31  Cl         0.73834500       0.72247400       0.88489300
    32  Cl         0.26165500       0.27752600       0.11510700
    33  Cl         0.28804500       0.50117400       0.87129300
    34  Cl         0.71195500       0.49882600       0.12870700
    35  O          0.20696150       0.22914130       0.61509900
    36  O          0.79303850       0.77085870       0.38490100
    37  O          0.80264150       0.52764130       0.62912900
    38  O          0.19735850       0.47235870       0.37087100
    39  N          0.50177160       0.35318140       0.59035100
    40  N          0.49822840       0.64681860       0.40964900
    41  H          0.50330000       0.28620000       0.52631500
    42  H          0.49670000       0.71380000       0.47368500
    43  C          0.35584190       0.33525160       0.65022110
    44  C          0.64415810       0.66474840       0.34977890
    45  C          0.42173180       0.47234150       0.76771110
    46  C          0.57826820       0.52765850       0.23228890
    47  C          0.59661180       0.55841150       0.77228110
    48  C          0.40338820       0.44158850       0.22771890
    49  C          0.65395190       0.48383160       0.65765110
    50  C          0.34604810       0.51616840       0.34234890
