data_ISEFUH
_symmetry_space_group_name_H-M    'P1'
_symmetry_Int_Tables_number       1
loop_
_symmetry_equiv_pos_site_id
_symmetry_equiv_pos_as_xyz
1 x,y,z
_cell_length_a                   11.2061
_cell_length_b                   9.1811
_cell_length_c                   15.9921
_cell_angle_alpha                90.0
_cell_angle_beta                 110.1557
_cell_angle_gamma                90.0
loop_
_atom_site_label
_atom_site_type_symbol
_atom_site_fract_x
_atom_site_fract_y
_atom_site_fract_z
     1  P          0.57994500       0.15165700       0.11281400
     2  P          0.42005500       0.65165700       0.38718600
     3  P          0.42005500       0.84834300       0.88718600
     4  P          0.57994500       0.34834300       0.61281400
     5  O          0.48231150       0.13732000       0.15644110
     6  O          0.51768850       0.63732000       0.34355890
     7  O          0.51768850       0.86268000       0.84355890
     8  O          0.48231150       0.36268000       0.65644110
     9  C          0.52722000       0.07653000       0.00169160
    10  C          0.47278000       0.57653000       0.49830840
    11  C          0.47278000       0.92347000      -0.00169160
    12  C          0.52722000       0.42347000       0.50169160
    13  H          0.46270000       0.13960000       0.96230000
    14  H          0.53730000       0.63960000       0.53770000
    15  H          0.53730000       0.86040000       0.03770000
    16  H          0.46270000       0.36040000       0.46230000
    17  H          0.59830000       0.07340000       0.98030000
    18  H          0.40170000       0.57340000       0.51970000
    19  H          0.40170000       0.92660000       0.01970000
    20  H          0.59830000       0.42660000       0.48030000
    21  C          0.72392000       0.05862000       0.17702150
    22  C          0.27608000       0.55862000       0.32297850
    23  C          0.27608000       0.94138000       0.82297850
    24  C          0.72392000       0.44138000       0.67702150
    25  C          0.83522000       0.07373000       0.15798180
    26  C          0.16478000       0.57373000       0.34201820
    27  C          0.16478000       0.92627000       0.84201820
    28  C          0.83522000       0.42627000       0.65798180
    29  H          0.83560000       0.12970000       0.10960000
    30  H          0.16440000       0.62970000       0.39040000
    31  H          0.16440000       0.87030000       0.89040000
    32  H          0.83560000       0.37030000       0.60960000
    33  C          0.94503000       0.00624000       0.21062000
    34  C          0.05497000       0.50624000       0.28938000
    35  C          0.05497000      -0.00624000       0.78938000
    36  C          0.94503000       0.49376000       0.71062000
    37  H          0.01910000       0.01670000       0.19750000
    38  H          0.98090000       0.51670000       0.30250000
    39  H          0.98090000       0.98330000       0.80250000
    40  H          0.01910000       0.48330000       0.69750000
    41  C          0.94613000       0.92446000       0.28132000
    42  C          0.05387000       0.42446000       0.21868000
    43  C          0.05387000       0.07554000       0.71868000
    44  C          0.94613000       0.57554000       0.78132000
    45  H          0.02110000       0.88010000       0.31670000
    46  H          0.97890000       0.38010000       0.18330000
    47  H          0.97890000       0.11990000       0.68330000
    48  H          0.02110000       0.61990000       0.81670000
    49  C          0.83703000       0.90667000       0.30112000
    50  C          0.16297000       0.40667000       0.19888000
    51  C          0.16297000       0.09333000       0.69888000
    52  C          0.83703000       0.59333000       0.80112000
    53  H          0.83780000       0.84960000       0.34930000
    54  H          0.16220000       0.34960000       0.15070000
    55  H          0.16220000       0.15040000       0.65070000
    56  H          0.83780000       0.65040000       0.84930000
    57  C          0.72503000       0.97457000       0.24843180
    58  C          0.27497000       0.47457000       0.25156820
    59  C          0.27497000       0.02543000       0.75156820
    60  C          0.72503000       0.52543000       0.74843180
    61  H          0.65100000       0.96310000       0.26170000
    62  H          0.34900000       0.46310000       0.23830000
    63  H          0.34900000       0.03690000       0.73830000
    64  H          0.65100000       0.53690000       0.76170000
    65  C          0.62372000       0.33743000       0.10333150
    66  C          0.37628000       0.83743000       0.39666850
    67  C          0.37628000       0.66257000       0.89666850
    68  C          0.62372000       0.16257000       0.60333150
    69  C          0.67603000       0.38423000       0.04152000
    70  C          0.32397000       0.88423000       0.45848000
    71  C          0.32397000       0.61577000       0.95848000
    72  C          0.67603000       0.11577000       0.54152000
    73  H          0.68280000       0.31990000      -0.00160000
    74  H          0.31720000       0.81990000       0.50160000
    75  H          0.31720000       0.68010000       0.00160000
    76  H          0.68280000       0.18010000       0.49840000
    77  C          0.71823000       0.52633000       0.04322000
    78  C          0.28177000       0.02633000       0.45678000
    79  C          0.28177000       0.47367000       0.95678000
    80  C          0.71823000       0.97367000       0.54322000
    81  H          0.75320000       0.55680000       0.00120000
    82  H          0.24680000       0.05680000       0.49880000
    83  H          0.24680000       0.44320000      -0.00120000
    84  H          0.75320000       0.94320000       0.50120000
    85  C          0.70883000       0.62163000       0.10572000
    86  C          0.29117000       0.12163000       0.39428000
    87  C          0.29117000       0.37837000       0.89428000
    88  C          0.70883000       0.87837000       0.60572000
    89  H          0.73980000       0.71590000       0.10780000
    90  H          0.26020000       0.21590000       0.39220000
    91  H          0.26020000       0.28410000       0.89220000
    92  H          0.73980000       0.78410000       0.60780000
    93  C          0.65383000       0.57803000       0.16542000
    94  C          0.34617000       0.07803000       0.33458000
    95  C          0.34617000       0.42197000       0.83458000
    96  C          0.65383000       0.92197000       0.66542000
    97  H          0.64550000       0.64390000       0.20720000
    98  H          0.35450000       0.14390000       0.29280000
    99  H          0.35450000       0.35610000       0.79280000
   100  H          0.64550000       0.85610000       0.70720000
   101  C          0.60993000       0.43643000       0.16440190
   102  C          0.39007000       0.93643000       0.33559810
   103  C          0.39007000       0.56357000       0.83559810
   104  C          0.60993000       0.06357000       0.66440190
   105  H          0.57120000       0.40820000       0.20480000
   106  H          0.42880000       0.90820000       0.29520000
   107  H          0.42880000       0.59180000       0.79520000
   108  H          0.57120000       0.09180000       0.70480000
   109  O          0.24069150       0.17212000       0.06222140
   110  O          0.75930850       0.67212000       0.43777860
   111  O          0.75930850       0.82788000       0.93777860
   112  O          0.24069150       0.32788000       0.56222140
   113  H          0.31480000       0.15540000       0.09280000
   114  H          0.68520000       0.65540000       0.40720000
   115  H          0.68520000       0.84460000       0.90720000
   116  H          0.31480000       0.34460000       0.59280000
   117  C          0.16932000       0.05073000       0.05791160
   118  C          0.83068000       0.55073000       0.44208840
   119  C          0.83068000       0.94927000       0.94208840
   120  C          0.16932000       0.44927000       0.55791160
   121  C          0.21682000       0.92467000       0.10123170
   122  C          0.78318000       0.42467000       0.39876830
   123  C          0.78318000       0.07533000       0.89876830
   124  C          0.21682000       0.57533000       0.60123170
   125  H          0.30200000       0.91940000       0.13690000
   126  H          0.69800000       0.41940000       0.36310000
   127  H          0.69800000       0.08060000       0.86310000
   128  H          0.30200000       0.58060000       0.63690000
   129  C          0.13862000       0.80297000       0.09259190
   130  C          0.86138000       0.30297000       0.40740810
   131  C          0.86138000       0.19703000       0.90740810
   132  C          0.13862000       0.69703000       0.59259190
   133  H          0.17240000       0.71760000       0.12270000
   134  H          0.82760000       0.21760000       0.37730000
   135  H          0.82760000       0.28240000       0.87730000
   136  H          0.17240000       0.78240000       0.62270000
   137  C          0.01332000       0.80767000       0.04054180
   138  C         -0.01332000       0.30767000       0.45945820
   139  C         -0.01332000       0.19233000       0.95945820
   140  C          0.01332000       0.69233000       0.54054180
   141  H          0.96240000       0.72560000       0.03460000
   142  H          0.03760000       0.22560000       0.46540000
   143  H          0.03760000       0.27440000       0.96540000
   144  H          0.96240000       0.77440000       0.53460000
   145  C          0.03862000       0.06223000       0.00422160
   146  C          0.96138000       0.56223000       0.49577840
   147  C          0.96138000       0.93777000      -0.00422160
   148  C          0.03862000       0.43777000       0.50422160
