data_ISIHUN
_symmetry_space_group_name_H-M    'P1'
_symmetry_Int_Tables_number       1
loop_
_symmetry_equiv_pos_site_id
_symmetry_equiv_pos_as_xyz
1 x,y,z
_cell_length_a                   6.80097
_cell_length_b                   10.844211
_cell_length_c                   11.369911
_cell_angle_alpha                107.2678
_cell_angle_beta                 92.9898
_cell_angle_gamma                104.8118
loop_
_atom_site_label
_atom_site_type_symbol
_atom_site_fract_x
_atom_site_fract_y
_atom_site_fract_z
     1  N          0.40347000       0.36035000       0.26744000
     2  N          0.59653000       0.63965000       0.73256000
     3  C          0.38098000       0.25646000       0.14495000
     4  C          0.61902000       0.74354000       0.85505000
     5  H          0.50120000       0.22050000       0.13970000
     6  H          0.49880000       0.77950000       0.86030000
     7  H          0.37460000       0.29700000       0.07790000
     8  H          0.62540000       0.70300000       0.92210000
     9  N          0.07837000       0.16455000       0.23894000
    10  N          0.92163000       0.83545000       0.76106000
    11  C          0.18228000       0.14056000       0.12735000
    12  C          0.81772000       0.85944000       0.87265000
    13  H          0.08850000       0.13360000       0.05450000
    14  H          0.91150000       0.86640000       0.94550000
    15  H          0.21680000       0.05420000       0.11090000
    16  H          0.78320000       0.94580000       0.88910000
    17  C          0.41638000       0.30006000       0.36625000
    18  C          0.58362000       0.69994000       0.63375000
    19  H          0.42660000       0.36840000       0.44810000
    20  H          0.57340000       0.63160000       0.55190000
    21  H          0.54110000       0.26880000       0.36480000
    22  H          0.45890000       0.73120000       0.63520000
    23  C          0.22298000       0.17886000       0.34765000
    24  C          0.77702000       0.82114000       0.65235000
    25  H          0.26450000       0.09520000       0.33410000
    26  H          0.73550000       0.90480000       0.66590000
    27  H          0.15430000       0.19350000       0.42310000
    28  H          0.84570000       0.80650000       0.57690000
    29  C          0.21948000       0.41046000       0.27376000
    30  C          0.78052000       0.58954000       0.72624000
    31  H          0.20710000       0.44970000       0.20640000
    32  H          0.79290000       0.55030000       0.79360000
    33  H          0.23380000       0.48190000       0.35430000
    34  H          0.76620000       0.51810000       0.64570000
    35  C          0.02298000       0.29256000       0.25996000
    36  C         -0.02298000       0.70744000       0.74004000
    37  H          0.95670000       0.31170000       0.33630000
    38  H          0.04330000       0.68830000       0.66370000
    39  H          0.92390000       0.28410000       0.18900000
    40  H          0.07610000       0.71590000       0.81100000
    41  C          0.26728000       0.79846000       0.14395000
    42  C          0.73272000       0.20154000       0.85605000
    43  F          0.29595000       0.82454000       0.03573000
    44  F          0.70405000       0.17546000       0.96427000
    45  C          0.42538000       0.85166000       0.24285000
    46  C          0.57462000       0.14834000       0.75715000
    47  I          0.71398500       0.97894300       0.23322300
    48  I          0.28601500       0.02105700       0.76677700
    49  C          0.38347000       0.82186000       0.34985000
    50  C          0.61653000       0.17814000       0.65015000
    51  F          0.52945000       0.86734000       0.44983000
    52  F          0.47055000       0.13266000       0.55017000
    53  C          0.19048000       0.74376000       0.35935000
    54  C          0.80952000       0.25624000       0.64065000
    55  F          0.16155000       0.71734000       0.46683000
    56  F          0.83845000       0.28266000       0.53317000
    57  C          0.03298000       0.69016000       0.26015000
    58  C          0.96702000       0.30984000       0.73985000
    59  I          0.75019500       0.55703300       0.26972300
    60  I          0.24980500       0.44296700       0.73027700
    61  C          0.07588000       0.71886000       0.15145000
    62  C          0.92412000       0.28114000       0.84855000
    63  F          0.93105000       0.66904000       0.05053000
    64  F          0.06895000       0.33096000       0.94947000
