data_ISIJEZ
_symmetry_space_group_name_H-M    'P1'
_symmetry_Int_Tables_number       1
loop_
_symmetry_equiv_pos_site_id
_symmetry_equiv_pos_as_xyz
1 x,y,z
_cell_length_a                   5.46766
_cell_length_b                   5.98787
_cell_length_c                   12.623314
_cell_angle_alpha                76.9459
_cell_angle_beta                 80.2509
_cell_angle_gamma                84.8109
loop_
_atom_site_label
_atom_site_type_symbol
_atom_site_fract_x
_atom_site_fract_y
_atom_site_fract_z
     1  C          0.50725000       0.57895000       0.53762000
     2  C          0.49275000       0.42105000       0.46238000
     3  N          0.31125000       0.58914000       0.61712000
     4  N          0.68875000       0.41086000       0.38288000
     5  C          0.31696000       0.73555000       0.68313000
     6  C          0.68304000       0.26445000       0.31687000
     7  H          0.17900000       0.74460000       0.73920000
     8  H          0.82100000       0.25540000       0.26080000
     9  C          0.51336000       0.87445000       0.67393000
    10  C          0.48664000       0.12555000       0.32607000
    11  H          0.50760000       0.97770000       0.72150000
    12  H          0.49240000       0.02230000       0.27850000
    13  C          0.71806000       0.85865000       0.59363000
    14  C          0.28194000       0.14135000       0.40637000
    15  H          0.85680000       0.94870000       0.58590000
    16  H          0.14320000       0.05130000       0.41410000
    17  C          0.71526000       0.70795000       0.52462000
    18  C          0.28474000       0.29205000       0.47538000
    19  H          0.85310000       0.69270000       0.46930000
    20  H          0.14690000       0.30730000       0.53070000
    21  C          0.45906000       0.22845000       0.95252000
    22  C          0.54094000       0.77155000       0.04748000
    23  F          0.41254000       0.45083000       0.90863160
    24  F          0.58746000       0.54917000       0.09136840
    25  C          0.67346000       0.11245000       0.91222000
    26  C          0.32654000       0.88755000       0.08778000
    27  I          0.92623300       0.27974300       0.78208514
    28  I          0.07376700       0.72025700       0.21791486
    29  C          0.28856000       0.11775000       0.03842000
    30  C          0.71144000       0.88225000       0.96158000
    31  F          0.08314000       0.23773000       0.07341170
    32  F          0.91686000       0.76227000       0.92658830
