data_ITAMIZ
_symmetry_space_group_name_H-M    'P1'
_symmetry_Int_Tables_number       1
loop_
_symmetry_equiv_pos_site_id
_symmetry_equiv_pos_as_xyz
1 x,y,z
_cell_length_a                   11.47632
_cell_length_b                   13.91723
_cell_length_c                   14.49623
_cell_angle_alpha                80.3681
_cell_angle_beta                 76.3941
_cell_angle_gamma                88.5472
loop_
_atom_site_label
_atom_site_type_symbol
_atom_site_fract_x
_atom_site_fract_y
_atom_site_fract_z
     1  C          0.80293000       0.49893000       0.11742000
     2  C          0.19707000       0.50107000       0.88258000
     3  C          0.87153000       0.58443000       0.08612000
     4  C          0.12847000       0.41557000       0.91388000
     5  H          0.85480000       0.62950000       0.03420000
     6  H          0.14520000       0.37050000       0.96580000
     7  C          0.96353000       0.60713000       0.12733000
     8  C          0.03647000       0.39287000       0.87267000
     9  C          0.98593000       0.53983000       0.20353000
    10  C          0.01407000       0.46017000       0.79647000
    11  O          0.07402000       0.56312000       0.24632000
    12  O          0.92598000       0.43688000       0.75368000
    13  H          0.07440000       0.52130000       0.29520000
    14  H          0.92560000       0.47870000       0.70480000
    15  C          0.92183000       0.45323000       0.23543000
    16  C          0.07817000       0.54677000       0.76457000
    17  H          0.94010000       0.40750000       0.28640000
    18  H          0.05990000       0.59250000       0.71360000
    19  C          0.83063000       0.43303000       0.19293000
    20  C          0.16937000       0.56697000       0.80707000
    21  O          0.76522000       0.34726190       0.22419190
    22  O          0.23478000       0.65273810       0.77580810
    23  H          0.78640000       0.31730000       0.27220000
    24  H          0.21360000       0.68270000       0.72780000
    25  C          0.03643000       0.70273000       0.09273000
    26  C          0.96357000       0.29727000       0.90727000
    27  H          0.11230000       0.69160000       0.11520000
    28  H          0.88770000       0.30840000       0.88480000
    29  C          0.97343000       0.78683000       0.13913000
    30  C          0.02657000       0.21317000       0.86087000
    31  C          0.89813000       0.84903000       0.09383000
    32  C          0.10187000       0.15097000       0.90617000
    33  H          0.88420000       0.83520000       0.03520000
    34  H          0.11580000       0.16480000       0.96480000
    35  C          0.84243000       0.92973000       0.12953000
    36  C          0.15757000       0.07027000       0.87047000
    37  C          0.86573000       0.94873000       0.21513000
    38  C          0.13427000       0.05127000       0.78487000
    39  O          0.81443000       0.02982000       0.25032000
    40  O          0.18557000       0.97018000       0.74968000
    41  H          0.80540000       0.02040000       0.30851500
    42  H          0.19460000       0.97960000       0.69148500
    43  C          0.93783000       0.88773000       0.26343000
    44  C          0.06217000       0.11227000       0.73657000
    45  H          0.95150000       0.90110000       0.32210000
    46  H          0.04850000       0.09890000       0.67790000
    47  C          0.99003000       0.80703000       0.22583000
    48  C          0.00997000       0.19297000       0.77417000
    49  O          0.05833000       0.75082000       0.28002000
    50  O          0.94167000       0.24918000       0.71998000
    51  H          0.06040000       0.69231800       0.27240000
    52  H          0.93960000       0.30768200       0.72760000
    53  C          0.75753000      -0.00647000       0.08033000
    54  C          0.24247000       0.00647000       0.91967000
    55  H          0.76530000       0.06100000       0.09360000
    56  H          0.23470000       0.93900000       0.90640000
    57  C          0.62713000       0.95993000       0.12582000
    58  C          0.37287000       0.04007000       0.87418000
    59  C          0.57663000       0.88233000       0.09903000
    60  C          0.42337000       0.11767000       0.90097000
    61  H          0.62590000       0.84980000       0.05180000
    62  H          0.37410000       0.15020000       0.94820000
    63  C          0.45883000       0.84883000       0.13653000
    64  C          0.54117000       0.15117000       0.86347000
    65  C          0.38853000       0.89683000       0.20793000
    66  C          0.61147000       0.10317000       0.79207000
    67  O          0.27022000       0.87182000       0.25112000
    68  O          0.72978000       0.12818000       0.74888000
    69  H          0.26340000       0.81131600       0.25440000
    70  H          0.73660000       0.18868400       0.74560000
    71  C          0.43573000       0.97343000       0.23753000
    72  C          0.56427000       0.02657000       0.76247000
    73  H          0.38720000       0.00470000       0.28620000
    74  H          0.61280000      -0.00470000       0.71380000
    75  C          0.55283000       0.00523000       0.19743000
    76  C          0.44717000      -0.00523000       0.80257000
    77  O          0.59102000       0.08272000       0.23052000
    78  O          0.40898000       0.91728000       0.76948000
    79  H          0.65920000       0.07140000       0.24030000
    80  H          0.34080000       0.92860000       0.75970000
    81  C          0.40863000       0.76603000       0.09993000
    82  C          0.59137000       0.23397000       0.90007000
    83  H          0.31950000       0.76670000       0.12380000
    84  H          0.68050000       0.23330000       0.87620000
    85  C          0.44943000       0.66593000       0.14083000
    86  C          0.55057000       0.33407000       0.85917000
    87  C          0.54773000       0.61833000       0.09203000
    88  C          0.45227000       0.38167000       0.90797000
    89  H          0.59290000       0.65130000       0.03200000
    90  H          0.40710000       0.34870000       0.96800000
    91  C          0.58303000       0.52503000       0.12633000
    92  C          0.41697000       0.47497000       0.87367000
    93  C          0.51133000       0.47643000       0.21273000
    94  C          0.48867000       0.52357000       0.78727000
    95  O          0.53052000       0.38222000       0.25162000
    96  O          0.46948000       0.61778000       0.74838000
    97  H          0.60220000       0.36440000       0.23930000
    98  H          0.39780000       0.63560000       0.76070000
    99  C          0.41423000       0.52243000       0.26403000
   100  C          0.58577000       0.47757000       0.73597000
   101  H          0.36680000       0.48870000       0.32280000
   102  H          0.63320000       0.51130000       0.67720000
   103  C          0.38653000       0.61703000       0.22963000
   104  C          0.61347000       0.38297000       0.77037000
   105  O          0.29532000       0.66572000       0.28287190
   106  O          0.70468000       0.33428000       0.71712810
   107  H          0.27440000       0.63530000       0.33841800
   108  H          0.72560000       0.36470000       0.66158200
   109  C          0.69643000       0.47883000       0.07452000
   110  C          0.30357000       0.52117000       0.92548000
   111  H          0.68200000       0.40670000       0.08860000
   112  H          0.31800000       0.59330000       0.91140000
   113  C          0.07323000       0.72703000       0.98297000
   114  C          0.92677000       0.27297000       0.01703000
   115  H          0.11940000       0.78830000       0.96390000
   116  H          0.88060000       0.21170000       0.03610000
   117  H          0.00130000       0.73390000       0.95710000
   118  H         -0.00130000       0.26610000       0.04290000
   119  H          0.12250000       0.67450000       0.95760000
   120  H          0.87750000       0.32550000       0.04240000
   121  C          0.78943000      -0.00037000       0.97087000
   122  C          0.21057000       0.00037000       0.02913000
   123  H          0.73250000       0.04210000       0.94310000
   124  H          0.26750000       0.95790000       0.05690000
   125  H          0.78520000       0.93430000       0.95480000
   126  H          0.21480000       0.06570000       0.04520000
   127  H          0.87080000       0.02650000       0.94450000
   128  H          0.12920000       0.97350000       0.05550000
   129  C          0.43444000       0.78323000       0.98907000
   130  C          0.56556000       0.21677000       0.01093000
   131  H          0.40060000       0.72900000       0.96800000
   132  H          0.59940000       0.27100000       0.03200000
   133  H          0.52130000       0.78720000       0.96240000
   134  H          0.47870000       0.21280000       0.03760000
   135  H          0.39780000       0.84430000       0.96650000
   136  H          0.60220000       0.15570000       0.03350000
   137  C          0.72433000       0.50843000       0.96527000
   138  C          0.27567000       0.49157000       0.03473000
   139  H          0.79760000       0.47620000       0.93640000
   140  H          0.20240000       0.52380000       0.06360000
   141  H          0.73600000       0.57920000       0.94840000
   142  H          0.26400000       0.42080000       0.05160000
   143  H          0.65740000       0.48880000       0.94080000
   144  H          0.34260000       0.51120000       0.05920000
   145  Cl         0.24335900       0.56346800       0.49772700
   146  Cl         0.75664100       0.43653200       0.50227300
   147  Cl         0.73724120       0.01121100       0.46813900
   148  Cl         0.26275880       0.98878900       0.53186100
   149  N          0.64253000       0.69112000       0.37352000
   150  N          0.35747000       0.30888000       0.62648000
   151  N          0.55203000       0.77772000       0.51502000
   152  N          0.44797000       0.22228000       0.48498000
   153  C          0.59375000       0.78743000       0.33823000
   154  C          0.40625000       0.21257000       0.66177000
   155  H          0.52760000       0.77710000       0.30750000
   156  H          0.47240000       0.22290000       0.69250000
   157  H          0.65750000       0.82650000       0.28940000
   158  H          0.34250000       0.17350000       0.71060000
   159  C          0.54784000       0.84203000       0.42153000
   160  C          0.45216000       0.15797000       0.57847000
   161  H          0.59770000       0.90120000       0.41300000
   162  H          0.40230000       0.09880000       0.58700000
   163  H          0.46430000       0.86250000       0.42250000
   164  H          0.53570000       0.13750000       0.57750000
   165  C          0.73613000       0.70693000       0.42693000
   166  C          0.26387000       0.29307000       0.57307000
   167  H          0.80010000       0.75120000       0.38450000
   168  H          0.19990000       0.24880000       0.61550000
   169  H          0.77290000       0.64400000       0.44650000
   170  H          0.22710000       0.35600000       0.55350000
   171  C          0.67884000       0.75093000       0.51503000
   172  C          0.32116000       0.24907000       0.48497000
   173  H          0.68080000       0.70350000       0.57370000
   174  H          0.31920000       0.29650000       0.42630000
   175  H          0.72490000       0.80980000       0.51600000
   176  H          0.27510000       0.19020000       0.48400000
   177  C          0.54213000       0.63113000       0.44233000
   178  C          0.45787000       0.36887000       0.55767000
   179  H          0.57410000       0.56970000       0.47140000
   180  H          0.42590000       0.43030000       0.52860000
   181  H          0.48320000       0.61430000       0.40720000
   182  H          0.51680000       0.38570000       0.59280000
   183  C          0.48144000       0.68723000       0.52013000
   184  C          0.51856000       0.31277000       0.47987000
   185  H          0.39980000       0.70500000       0.51240000
   186  H          0.60020000       0.29500000       0.48760000
   187  H          0.47410000       0.64590000       0.58380000
   188  H          0.52590000       0.35410000       0.41620000
   189  C          0.69644000       0.64083000       0.29013000
   190  C          0.30356000       0.35917000       0.70987000
   191  H          0.72760000       0.57760000       0.31370000
   192  H          0.27240000       0.42240000       0.68630000
   193  H          0.76200000       0.68110000       0.24640000
   194  H          0.23800000       0.31890000       0.75360000
   195  H          0.63500000       0.63080000       0.25560000
   196  H          0.36500000       0.36920000       0.74440000
   197  C          0.49994000       0.82933000       0.59813000
   198  C          0.50006000       0.17067000       0.40187000
   199  H          0.54750000       0.88830000       0.59290000
   200  H          0.45250000       0.11170000       0.40710000
   201  H          0.50120000       0.78610000       0.65860000
   202  H          0.49880000       0.21390000       0.34140000
   203  H          0.41700000       0.84730000       0.59720000
   204  H          0.58300000       0.15270000       0.40280000
   205  O          0.02175000       0.13205000       0.34714000
   206  O          0.97825000       0.86795000       0.65286000
   207  H          0.07580000       0.11420000       0.37630000
   208  H          0.92420000       0.88580000       0.62370000
   209  C          0.07348000       0.15558000       0.24627000
   210  C          0.92652000       0.84442000       0.75373000
   211  H          0.09250000       0.09260000       0.22330000
   212  H          0.90750000       0.90740000       0.77670000
   213  H          0.00840000       0.18430000       0.21650000
   214  H         -0.00840000       0.81570000       0.78350000
   215  C          0.17361200       0.21561100       0.20491000
   216  C          0.82638800       0.78438900       0.79509000
   217  H          0.20690000       0.19430000       0.14230000
   218  H          0.79310000       0.80570000       0.85770000
   219  H          0.13990000       0.28080000       0.18920000
   220  H          0.86010000       0.71920000       0.81080000
   221  C          0.26289000       0.23221000       0.23369000
   222  C          0.73711000       0.76779000       0.76631000
   223  H          0.31450000       0.28060000       0.18550000
   224  H          0.68550000       0.71940000       0.81450000
   225  H          0.30720000       0.17180000       0.24390000
   226  H          0.69280000       0.82820000       0.75610000
   227  H          0.23770000       0.25750000       0.29430000
   228  H          0.76230000       0.74250000       0.70570000
   229  O          0.80523000       0.25073000       0.38563000
   230  O          0.19477000       0.74927000       0.61437000
   231  H          0.82050000       0.27940000       0.42830000
   232  H          0.17950000       0.72060000       0.57170000
   233  H          0.85140000       0.20430000       0.37740000
   234  H          0.14860000       0.79570000       0.62260000
   235  O          0.10134000       0.94575000       0.40294000
   236  O          0.89866000       0.05425000       0.59706000
   237  H          0.15750000       0.93070000       0.35540000
   238  H          0.84250000       0.06930000       0.64460000
   239  H          0.14760000       0.96760000       0.43750000
   240  H          0.85240000       0.03240000       0.56250000
   241  O          0.10914000       0.43763000       0.39543000
   242  O          0.89086000       0.56237000       0.60457000
   243  O          0.03774000       0.25513000       0.49523000
   244  O          0.96226000       0.74487000       0.50477000
