data_ITUBUX
_symmetry_space_group_name_H-M    'P1'
_symmetry_Int_Tables_number       1
loop_
_symmetry_equiv_pos_site_id
_symmetry_equiv_pos_as_xyz
1 x,y,z
_cell_length_a                   6.939501
_cell_length_b                   8.09532
_cell_length_c                   8.39452
_cell_angle_alpha                97.83001
_cell_angle_beta                 104.04301
_cell_angle_gamma                92.77301
loop_
_atom_site_label
_atom_site_type_symbol
_atom_site_fract_x
_atom_site_fract_y
_atom_site_fract_z
     1  F          0.01899120       0.83908100       0.80658900
     2  F         -0.01899120       0.16091900       0.19341100
     3  F          0.85244120       0.56651100       0.58924110
     4  F          0.14755880       0.43348900       0.41075890
     5  F          0.77277130       0.57000100       0.25987110
     6  F          0.22722870       0.42999900       0.74012890
     7  F          0.85296120       0.84778110       0.13866900
     8  F          0.14703880       0.15221890       0.86133100
     9  C         -0.02160820       0.84746170       0.64331150
    10  C          0.02160820       0.15253830       0.35668850
    11  C          0.89594190       0.70790160       0.53503170
    12  C          0.10405810       0.29209840       0.46496830
    13  C          0.85375190       0.71007170       0.36299170
    14  C          0.14624810       0.28992830       0.63700830
    15  C          0.89435180       0.85231170       0.30435150
    16  C          0.10564820       0.14768830       0.69564850
    17  C         -0.02177830       0.00121160       0.41228140
    18  C          0.02177830      -0.00121160       0.58771860
    19  O          0.33118140       0.68484120       0.27108110
    20  O          0.66881860       0.31515880       0.72891890
    21  C          0.39391180       0.85053160       0.30419160
    22  C          0.60608820       0.14946840       0.69580840
    23  C          0.39129180       0.95293170       0.18538150
    24  C          0.60870820       0.04706830       0.81461850
    25  H          0.34221400       0.90948100       0.07077400
    26  H          0.65778600       0.09051900       0.92922600
    27  C          0.46214190       0.12268170       0.23570160
    28  C          0.53785810       0.87731830       0.76429840
    29  H          0.46033900       0.19269400       0.15335100
    30  H          0.53966100       0.80730600       0.84664900
    31  C          0.53328180       0.18961170       0.39909160
    32  C          0.46671820       0.81038830       0.60090840
    33  H          0.58109100       0.30434000       0.42976500
    34  H          0.41890900       0.69566000       0.57023500
    35  C          0.53504170       0.08545160       0.52323150
    36  C          0.46495830       0.91454840       0.47676850
    37  C          0.27102000       0.60852180       0.10152170
    38  C          0.72898000       0.39147820       0.89847830
    39  H          0.15390900       0.65957000       0.04400200
    40  H          0.84609100       0.34043000       0.95599800
    41  H          0.23747500       0.48844500       0.09544800
    42  H          0.76252500       0.51155500       0.90455200
    43  H          0.38013800       0.62503800       0.04844300
    44  H          0.61986200       0.37496200       0.95155700
