data_ITUTOJ
_symmetry_space_group_name_H-M    'P1'
_symmetry_Int_Tables_number       1
loop_
_symmetry_equiv_pos_site_id
_symmetry_equiv_pos_as_xyz
1 x,y,z
_cell_length_a                   7.85856
_cell_length_b                   12.08341
_cell_length_c                   21.259417
_cell_angle_alpha                90.0
_cell_angle_beta                 96.2562
_cell_angle_gamma                90.0
loop_
_atom_site_label
_atom_site_type_symbol
_atom_site_fract_x
_atom_site_fract_y
_atom_site_fract_z
     1  O          0.72882160       0.56984100       0.62165500
     2  O          0.77117840       0.06984100       0.87834500
     3  O          0.27117840       0.43015900       0.37834500
     4  O          0.22882160       0.93015900       0.12165500
     5  H          0.67330000       0.54920000       0.65921300
     6  H          0.82670000       0.04920000       0.84078700
     7  H          0.32670000       0.45080000       0.34078700
     8  H          0.17330000       0.95080000       0.15921300
     9  C          0.70322000       0.50014140       0.57519700
    10  C          0.79678000       0.00014140       0.92480300
    11  C          0.29678000       0.49985860       0.42480300
    12  C          0.20322000      -0.00014140       0.07519700
    13  C          0.60962000       0.40069140       0.58278700
    14  C          0.89038000       0.90069140       0.91721300
    15  C          0.39038000       0.59930860       0.41721300
    16  C          0.10962000       0.09930860       0.08278700
    17  H          0.57266100       0.38599000       0.62304400
    18  H          0.92733900       0.88599000       0.87695600
    19  H          0.42733900       0.61401000       0.37695600
    20  H          0.07266100       0.11401000       0.12304400
    21  C          0.57073190       0.32659140       0.53624700
    22  C          0.92926810       0.82659140       0.96375300
    23  C          0.42926810       0.67340860       0.46375300
    24  C          0.07073190       0.17340860       0.03624700
    25  H          0.60947200       0.34269000       0.49644800
    26  H          0.89052800       0.84269000       0.00355200
    27  H          0.39052800       0.65731000       0.50355200
    28  H          0.10947200       0.15731000      -0.00355200
    29  C          0.47562000       0.22453130       0.54070800
    30  C          0.02438000       0.72453130       0.95929200
    31  C          0.52438000       0.77546870       0.45929200
    32  C          0.97562000       0.27546870       0.04070800
    33  C          0.43762000       0.17989140       0.59859800
    34  C          0.06238000       0.67989140       0.90140200
    35  C          0.56238000       0.82010860       0.40140200
    36  C          0.93762000       0.32010860       0.09859800
    37  H          0.47872700       0.21514000       0.63721400
    38  H          0.02127300       0.71514000       0.86278600
    39  H          0.52127300       0.78486000       0.36278600
    40  H          0.97872700       0.28486000       0.13721400
    41  C          0.34052000       0.08484150       0.59931900
    42  C          0.15948000       0.58484150       0.90068100
    43  C          0.65948000       0.91515850       0.40068100
    44  C          0.84052000       0.41515850       0.09931900
    45  H          0.31572300       0.05458500       0.63854200
    46  H          0.18427700       0.55458500       0.86145800
    47  H          0.68427700       0.94541500       0.36145800
    48  H          0.81572300       0.44541500       0.13854200
    49  C          0.27892000       0.03337150       0.54340900
    50  C          0.22108000       0.53337150       0.95659100
    51  C          0.72108000       0.96662850       0.45659100
    52  C          0.77892000       0.46662850       0.04340900
    53  H          0.21184500       0.96811800       0.54437000
    54  H          0.28815500       0.46811800       0.95563000
    55  H          0.78815500       0.03188200       0.45563000
    56  H          0.71184500       0.53188200       0.04437000
    57  C          0.31473000       0.07659160       0.48587900
    58  C          0.18527000       0.57659160       0.01412100
    59  C          0.68527000       0.92340840       0.51412100
    60  C          0.81473000       0.42340840       0.98587900
    61  H          0.27051800       0.04180400       0.44745700
    62  H          0.22948200       0.54180400       0.05254300
    63  H          0.72948200       0.95819600       0.55254300
    64  H          0.77051800       0.45819600       0.94745700
    65  C          0.41472000       0.17027150       0.48456800
    66  C          0.08528000       0.67027150       0.01543200
    67  C          0.58528000       0.82972850       0.51543200
    68  C          0.91472000       0.32972850       0.98456800
    69  H          0.44257900       0.19817900       0.44518100
    70  H          0.05742100       0.69817900       0.05481900
    71  H          0.55742100       0.80182100       0.55481900
    72  H          0.94257900       0.30182100       0.94518100
    73  C          0.77052000       0.52939130       0.51719700
    74  C          0.72948000       0.02939130       0.98280300
    75  C          0.22948000       0.47060870       0.48280300
    76  C          0.27052000       0.97060870       0.01719700
    77  H          0.75142500       0.48068300       0.48205800
    78  H          0.74857500       0.98068300       0.01794200
    79  H          0.24857500       0.51931700       0.51794200
    80  H          0.25142500       0.01931700       0.98205800
    81  C          0.85983190       0.62329140       0.51072700
    82  C          0.64016810       0.12329140       0.98927300
    83  C          0.14016810       0.37670860       0.48927300
    84  C          0.35983190       0.87670860       0.01072700
    85  H          0.88766900       0.66686800       0.54760300
    86  H          0.61233100       0.16686800       0.95239700
    87  H          0.11233100       0.33313200       0.45239700
    88  H          0.38766900       0.83313200       0.04760300
    89  C          0.91718190       0.66355130       0.45197700
    90  C          0.58281810       0.16355130       0.04802300
    91  C          0.08281810       0.33644870       0.54802300
    92  C          0.41718190       0.83644870       0.95197700
    93  C          0.01772000       0.75884140       0.45367800
    94  C          0.48228000       0.25884140       0.04632200
    95  C         -0.01772000       0.24115860       0.54632200
    96  C          0.51772000       0.74115860       0.95367800
    97  H          0.05217900       0.79363600       0.49307400
    98  H          0.44782100       0.29363600       0.00692600
    99  H          0.94782100       0.20636400       0.50692600
   100  H          0.55217900       0.70636400       0.99307400
   101  C          0.06792000       0.80346150       0.39833800
   102  C          0.43208000       0.30346150       0.10166200
   103  C          0.93208000       0.19653850       0.60166200
   104  C          0.56792000       0.69653850       0.89833800
   105  H          0.13648000       0.86835900       0.40005500
   106  H          0.36352000       0.36835900       0.09994500
   107  H          0.86352000       0.13164100       0.59994500
   108  H          0.63648000       0.63164100       0.90005500
   109  C          0.01812000       0.75350150       0.34082800
   110  C          0.48188000       0.25350150       0.15917200
   111  C         -0.01812000       0.24649850       0.65917200
   112  C          0.51812000       0.74649850       0.84082800
   113  H          0.05212700       0.78410100       0.30297300
   114  H          0.44787300       0.28410100       0.19702700
   115  H          0.94787300       0.21589900       0.69702700
   116  H          0.55212700       0.71589900       0.80297300
   117  C          0.91862000       0.65880150       0.33843800
   118  C          0.58138000       0.15880150       0.16156200
   119  C          0.08138000       0.34119850       0.66156200
   120  C          0.41862000       0.84119850       0.83843800
   121  H          0.88451500       0.62459800       0.29882100
   122  H          0.61548500       0.12459800       0.20117900
   123  H          0.11548500       0.37540200       0.70117900
   124  H          0.38451500       0.87540200       0.79882100
   125  C          0.86832000       0.61350140       0.39331700
   126  C          0.63168000       0.11350140       0.10668300
   127  C          0.13168000       0.38649860       0.60668300
   128  C          0.36832000       0.88649860       0.89331700
   129  H          0.80048200       0.54826300       0.39118700
   130  H          0.69951800       0.04826300       0.10881300
   131  H          0.19951800       0.45173700       0.60881300
   132  H          0.30048200       0.95173700       0.89118700
   133  S          0.25525600       0.22797400       0.84883200
   134  S          0.24474400       0.72797400       0.65116800
   135  S          0.74474400       0.77202600       0.15116800
   136  S          0.75525600       0.27202600       0.34883200
   137  O          0.12672170       0.30129120       0.82111600
   138  O          0.37327830       0.80129120       0.67888400
   139  O          0.87327830       0.69870880       0.17888400
   140  O          0.62672170       0.19870880       0.32111600
   141  O          0.21249180       0.15580110       0.89811600
   142  O          0.28750820       0.65580110       0.60188400
   143  O          0.78750820       0.84419890       0.10188400
   144  O          0.71249180       0.34419890       0.39811600
   145  O          0.41289170       0.29479110       0.87697600
   146  O          0.08710830       0.79479110       0.62302400
   147  O          0.58710830       0.70520890       0.12302400
   148  O          0.91289170       0.20520890       0.37697600
   149  H          0.43440000       0.35920000       0.85461400
   150  H          0.06560000       0.85920000       0.64538600
   151  H          0.56560000       0.64080000       0.14538600
   152  H          0.93440000       0.14080000       0.35461400
   153  C          0.33222000       0.14779160       0.78940800
   154  C          0.16778000       0.64779160       0.71059200
   155  C          0.66778000       0.85220840       0.21059200
   156  C          0.83222000       0.35220840       0.28940800
   157  H          0.24021400       0.10025300       0.76984500
   158  H          0.25978600       0.60025300       0.73015500
   159  H          0.75978600       0.89974700       0.23015500
   160  H          0.74021400       0.39974700       0.26984500
   161  H          0.42747100       0.10173200       0.80790700
   162  H          0.07252900       0.60173200       0.69209300
   163  H          0.57252900       0.89826800       0.19209300
   164  H          0.92747100       0.39826800       0.30790700
   165  H          0.37212700       0.19653600       0.75720700
   166  H          0.12787300       0.69653600       0.74279300
   167  H          0.62787300       0.80346400       0.24279300
   168  H          0.87212700       0.30346400       0.25720700
   169  S          0.59742600       0.44233400       0.76259200
   170  S          0.90257400       0.94233400       0.73740800
   171  S          0.40257400       0.55766600       0.23740800
   172  S          0.09742600       0.05766600       0.26259200
   173  O          0.57609180       0.53485110       0.71873600
   174  O          0.92390820       0.03485110       0.78126400
   175  O          0.42390820       0.46514890       0.28126400
   176  O          0.07609180       0.96514890       0.21873600
   177  O          0.48933180       0.45938110       0.81370600
   178  O          0.01066820       0.95938110       0.68629400
   179  O          0.51066820       0.54061890       0.18629400
   180  O         -0.01066820       0.04061890       0.31370600
   181  O          0.57362000       0.33743110       0.73223600
   182  O          0.92638000       0.83743110       0.76776400
   183  O          0.42638000       0.66256890       0.26776400
   184  O          0.07362000       0.16256890       0.23223600
   185  C          0.80783000       0.45133000       0.79783120
   186  C          0.69217000       0.95133000       0.70216880
   187  C          0.19217000       0.54867000       0.20216880
   188  C          0.30783000       0.04867000       0.29783120
   189  H          0.82297800       0.52045800       0.82185900
   190  H          0.67702200       0.02045800       0.67814100
   191  H          0.17702200       0.47954200       0.17814100
   192  H          0.32297800       0.97954200       0.32185900
   193  H          0.88614500       0.45009400       0.76500300
   194  H          0.61385500       0.95009400       0.73499700
   195  H          0.11385500       0.54990600       0.23499700
   196  H          0.38614500       0.04990600       0.26500300
   197  H          0.83246800       0.38836700       0.82645400
   198  H          0.66753200       0.88836700       0.67354600
   199  H          0.16753200       0.61163300       0.17354600
   200  H          0.33246800       0.11163300       0.32645400
