data_IVAYIN
_symmetry_space_group_name_H-M    'P1'
_symmetry_Int_Tables_number       1
loop_
_symmetry_equiv_pos_site_id
_symmetry_equiv_pos_as_xyz
1 x,y,z
_cell_length_a                   9.41514
_cell_length_b                   15.55637
_cell_length_c                   19.84349
_cell_angle_alpha                99.34201
_cell_angle_beta                 102.01201
_cell_angle_gamma                95.39401
loop_
_atom_site_label
_atom_site_type_symbol
_atom_site_fract_x
_atom_site_fract_y
_atom_site_fract_z
     1  B          0.65165000       0.32113000       0.15642000
     2  B          0.34835000       0.67887000       0.84358000
     3  B          0.54644000       0.21983000       0.16522000
     4  B          0.45356000       0.78017000       0.83478000
     5  B          0.35804000       0.23763000       0.15852000
     6  B          0.64196000       0.76237000       0.84148000
     7  B          0.34344000       0.34773000       0.14262000
     8  B          0.65656000       0.65227000       0.85738000
     9  B          0.52394000       0.40003000       0.14232000
    10  B          0.47606000       0.59997000       0.85768000
    11  B          0.65294000       0.29523000       0.24092000
    12  B          0.34706000       0.70477000       0.75908000
    13  B          0.47515000       0.24473000       0.24222000
    14  B          0.52485000       0.75527000       0.75778000
    15  B          0.35024000       0.32393000       0.22782000
    16  B          0.64976000       0.67607000       0.77218000
    17  B          0.45165000       0.42253000       0.21822000
    18  B          0.54835000       0.57747000       0.78178000
    19  B          0.64024000       0.40483000       0.22652000
    20  B          0.35976000       0.59517000       0.77348000
    21  B          0.53294000       0.35833000       0.27982000
    22  B          0.46706000       0.64167000       0.72018000
    23  O          0.57403000       0.13841180       0.13323130
    24  O          0.42597000       0.86158820       0.86676870
    25  H          0.63190000       0.11720000       0.16240000
    26  H          0.36810000       0.88280000       0.83760000
    27  O          0.22293000       0.36088180       0.09283120
    28  O          0.77707000       0.63911820       0.90716880
    29  H          0.16580000       0.38790000       0.11320000
    30  H          0.83420000       0.61210000       0.88680000
    31  O          0.24353000       0.17181180       0.12192130
    32  O          0.75647000       0.82818820       0.87807870
    33  H          0.23830000       0.13140000       0.14510000
    34  H          0.76170000       0.86860000       0.85490000
    35  O          0.52923000       0.45827180       0.09577130
    36  O          0.47077000       0.54172820       0.90422870
    37  H          0.61640000       0.47090000       0.09310000
    38  H          0.38360000       0.52910000       0.90690000
    39  O          0.76383000       0.32025180       0.12031140
    40  O          0.23617000       0.67974820       0.87968860
    41  H          0.78950000       0.26980000       0.11480000
    42  H          0.21050000       0.73020000       0.88520000
    43  Br         0.58033400       0.39919300       0.38115819
    44  Br         0.41966600       0.60080700       0.61884181
    45  C          0.46914000       0.28783000       0.11233190
    46  C          0.53086000       0.71217000       0.88766810
    47  H          0.44730000       0.26320000       0.05440000
    48  H          0.55270000       0.73680000       0.94560000
    49  Br         0.44719400       0.15343300       0.29634319
    50  Br         0.55280600       0.84656700       0.70365681
    51  Br         0.17358400       0.32627300       0.26451419
    52  Br         0.82641600       0.67372700       0.73548581
    53  Br         0.79987400       0.50057300       0.26447200
    54  Br         0.20012600       0.49942700       0.73552800
    55  Br         0.82794400       0.26048300       0.29658200
    56  Br         0.17205600       0.73951700       0.70341800
    57  Br         0.39096400       0.53737300       0.24590200
    58  Br         0.60903600       0.46262700       0.75409800
    59  C          0.84854000       0.85792000       0.05153190
    60  C          0.15146000       0.14208000       0.94846810
    61  H          0.81510000       0.85340000      -0.00660000
    62  H          0.18490000       0.14660000       0.00660000
    63  Br         0.28956400       0.90056300       0.20303819
    64  Br         0.71043600       0.09943700       0.79696181
    65  Br         0.05506400       0.67480300       0.18834200
    66  Br         0.94493600       0.32519700       0.81165800
    67  Br         0.66676400       0.97563300       0.23614819
    68  Br         0.33323600       0.02436700       0.76385181
    69  Br         0.66605400       0.71918300       0.20655200
    70  Br         0.33394600       0.28081700       0.79344800
    71  Br         0.04632400       0.08109300       0.23386019
    72  Br         0.95367600       0.91890700       0.76613981
    73  B          0.82104000       0.76213000       0.08292000
    74  B          0.17896000       0.23787000       0.91708000
    75  B          0.70825000       0.84963000       0.09702000
    76  B          0.29175000       0.15037000       0.90298000
    77  B          0.82204000       0.95233000       0.10482000
    78  B          0.17796000       0.04767000       0.89518000
    79  B          0.00404000       0.92963000       0.09602000
    80  B         -0.00404000       0.07037000       0.90398000
    81  B          0.00344000       0.81203000       0.08302000
    82  B         -0.00344000       0.18797000       0.91698000
    83  B          0.96854000       0.77623000       0.15872000
    84  B          0.03146000       0.22377000       0.84128000
    85  B          0.78824000       0.79793000       0.16732000
    86  B          0.21176000       0.20207000       0.83268000
    87  B          0.78764000       0.91423000       0.18122000
    88  B          0.21236000       0.08577000       0.81878000
    89  B          0.96564000       0.96403000       0.18032000
    90  B          0.03436000       0.03597000       0.81968000
    91  B          0.07754000       0.87883000       0.16662000
    92  B          0.92246000       0.12117000       0.83338000
    93  B          0.94674000       0.86983000       0.21922000
    94  B          0.05326000       0.13017000       0.78078000
    95  Br         0.00611400       0.87770300       0.32061119
    96  Br        -0.00611400       0.12229700       0.67938881
    97  O          0.76743000       0.02436170       0.07889130
    98  O          0.23257000       0.97563830       0.92110870
    99  H          0.70320000       0.00630000       0.04170000
   100  H          0.29680000      -0.00630000       0.95830000
   101  O          0.08223000       0.97950170       0.06033130
   102  O          0.91777000       0.02049830       0.93966870
   103  H          0.12120000       0.02730000       0.08690000
   104  H          0.87880000       0.97270000       0.91310000
   105  O          0.08273000       0.76873180       0.03830130
   106  O          0.91727000       0.23126820       0.96169870
   107  H          0.07520000       0.79100000       0.00210000
   108  H          0.92480000       0.20900000      -0.00210000
   109  O          0.75743000       0.68160170       0.03991130
   110  O          0.24257000       0.31839830       0.96008870
   111  H          0.78440000       0.67730000       0.00190000
   112  H          0.21560000       0.32270000      -0.00190000
   113  O          0.56133000       0.83721180       0.05987130
   114  O          0.43867000       0.16278820       0.94012870
   115  H          0.52370000       0.88330000       0.06920000
   116  H          0.47630000       0.11670000       0.93080000
   117  P          0.58925120       0.24068800       0.57579500
   118  P          0.41074880       0.75931200       0.42420500
   119  C          0.65734000       0.15083000       0.52752000
   120  C          0.34266000       0.84917000       0.47248000
   121  C          0.67134000       0.07243000       0.55232000
   122  C          0.32866000       0.92757000       0.44768000
   123  H          0.64590000       0.06560000       0.59520000
   124  H          0.35410000       0.93440000       0.40480000
   125  C          0.72274000       0.00423000       0.51382000
   126  C          0.27726000      -0.00423000       0.48618000
   127  H          0.73280000       0.95080000       0.53050000
   128  H          0.26720000       0.04920000       0.46950000
   129  C          0.75895000       0.01373000       0.45172000
   130  C          0.24105000       0.98627000       0.54828000
   131  H          0.79490000       0.96690000       0.42600000
   132  H          0.20510000       0.03310000       0.57400000
   133  C          0.74365000       0.09073000       0.42622000
   134  C          0.25635000       0.90927000       0.57378000
   135  H          0.76700000       0.09610000       0.38260000
   136  H          0.23300000       0.90390000       0.61740000
   137  C          0.69354000       0.16063000       0.46432000
   138  C          0.30646000       0.83937000       0.53568000
   139  H          0.68430000       0.21400000       0.44740000
   140  H          0.31570000       0.78600000       0.55260000
   141  C          0.69494000       0.34123000       0.57182000
   142  C          0.30506000       0.65877000       0.42818000
   143  C          0.84515000       0.34203000       0.57912000
   144  C          0.15485000       0.65797000       0.42088000
   145  H          0.88860000       0.29030000       0.58500000
   146  H          0.11140000       0.70970000       0.41500000
   147  C          0.93155000       0.41914000       0.57763000
   148  C          0.06845000       0.58086000       0.42237000
   149  H          0.03390000       0.41960000       0.58170000
   150  H          0.96610000       0.58040000       0.41830000
   151  C          0.86905000       0.49473000       0.57032000
   152  C          0.13095000       0.50527000       0.42968000
   153  H          0.92830000       0.54730000       0.56970000
   154  H          0.07170000       0.45270000       0.43030000
   155  C          0.72035000       0.49383000       0.56392000
   156  C          0.27965000       0.50617000       0.43608000
   157  H          0.67760000       0.54600000       0.55860000
   158  H          0.32240000       0.45400000       0.44140000
   159  C          0.63134000       0.41723000       0.56512000
   160  C          0.36866000       0.58277000       0.43488000
   161  H          0.52900000       0.41720000       0.56140000
   162  H          0.47100000       0.58280000       0.43860000
   163  C          0.39874000       0.24153000       0.53862000
   164  C          0.60126000       0.75847000       0.46138000
   165  C          0.35524000       0.24673000       0.46772000
   166  C          0.64476000       0.75327000       0.53228000
   167  H          0.42710000       0.25290000       0.44090000
   168  H          0.57290000       0.74710000       0.55910000
   169  C          0.20904000       0.24283000       0.43622000
   170  C          0.79096000       0.75717000       0.56378000
   171  H          0.18010000       0.24760000       0.38830000
   172  H          0.81990000       0.75240000       0.61170000
   173  C          0.10505000       0.23214000       0.47533000
   174  C          0.89495000       0.76786000       0.52467000
   175  H          0.00400000       0.22910000       0.45390000
   176  H         -0.00400000       0.77090000       0.54610000
   177  C          0.14675000       0.22554000       0.54523000
   178  C          0.85325000       0.77446000       0.45477000
   179  H          0.07430000       0.21700000       0.57130000
   180  H          0.92570000       0.78300000       0.42870000
   181  C          0.29325000       0.23114000       0.57722000
   182  C          0.70675000       0.76886000       0.42278000
   183  H          0.32170000       0.22790000       0.62540000
   184  H          0.67830000       0.77210000       0.37460000
   185  C          0.60995000       0.22713000       0.66522000
   186  C          0.39005000       0.77287000       0.33478000
   187  H          0.57680000       0.27690000       0.69200000
   188  H          0.42320000       0.72310000       0.30800000
   189  H          0.71320000       0.22450000       0.68560000
   190  H          0.28680000       0.77550000       0.31440000
   191  H          0.55090000       0.17240000       0.66690000
   192  H          0.44910000       0.82760000       0.33310000
   193  O          0.32053000       0.55352000       0.06465160
   194  O          0.67947000       0.44648000       0.93534840
   195  H          0.39440000       0.52630000       0.08120000
   196  H          0.60560000       0.47370000       0.91880000
   197  H          0.33550000       0.61011400       0.06720000
   198  H          0.66450000       0.38988600       0.93280000
   199  H          0.27440000       0.52930000       0.02171300
   200  H          0.72560000       0.47070000       0.97828700
   201  O          0.34693000       0.71752000       0.08408180
   202  O          0.65307000       0.28248000       0.91591820
   203  H          0.26940000       0.74230000       0.07430000
   204  H          0.73060000       0.25770000       0.92570000
   205  H          0.34350000       0.70940000       0.03871200
   206  H          0.65650000       0.29060000       0.96128800
   207  O          0.21923000       0.48195190       0.93469850
   208  O          0.78077000       0.51804810       0.06530150
   209  H          0.21550000       0.42631400       0.93180000
   210  H          0.78450000       0.57368600       0.06820000
   211  H          0.13930000       0.50130000       0.91480000
   212  H          0.86070000       0.49870000       0.08520000
   213  O          0.92103000       0.18626190       0.08700150
   214  O          0.07897000       0.81373810       0.91299850
   215  H          0.00030000       0.19130000       0.10720000
   216  H         -0.00030000       0.80870000       0.89280000
   217  H          0.88440000       0.13991700       0.08520000
   218  H          0.11560000       0.86008300       0.91480000
   219  O          0.61023000       0.01622000       0.94665150
   220  O          0.38977000       0.98378000       0.05334850
   221  H          0.66440000       0.02630000       0.92620000
   222  H          0.33560000       0.97370000       0.07380000
   223  H          0.55440000       0.97880000       0.92520000
   224  H          0.44560000       0.02120000       0.07480000
   225  O          0.00673000       0.44242000       0.13659150
   226  O         -0.00673000       0.55758000       0.86340850
   227  H          0.94440000       0.41330000       0.14220000
   228  H          0.05560000       0.58670000       0.85780000
   229  H          0.03950000       0.47030000       0.17281400
   230  H          0.96050000       0.52970000       0.82718600
