data_IVURIB
_symmetry_space_group_name_H-M    'P1'
_symmetry_Int_Tables_number       1
loop_
_symmetry_equiv_pos_site_id
_symmetry_equiv_pos_as_xyz
1 x,y,z
_cell_length_a                   7.64162
_cell_length_b                   25.50675
_cell_length_c                   7.87812
_cell_angle_alpha                90.0
_cell_angle_beta                 104.1733
_cell_angle_gamma                90.0
loop_
_atom_site_label
_atom_site_type_symbol
_atom_site_fract_x
_atom_site_fract_y
_atom_site_fract_z
     1  I          0.79816600       0.61634916       0.52494600
     2  I          0.20183400       0.11634916       0.47505400
     3  I          0.95389800       0.38682717       0.85100700
     4  I          0.04610200       0.88682717       0.14899300
     5  I          0.60781700       0.36695018       0.60287600
     6  I          0.39218300       0.86695018       0.39712400
     7  I          0.25367700       0.35069216       0.35900800
     8  I          0.74632300       0.85069216       0.64099200
     9  O          0.06267000       0.16086190       0.02376000
    10  O          0.93733000       0.66086190       0.97624000
    11  H          0.08911000       0.15130000       0.12610000
    12  H          0.91089000       0.65130000       0.87390000
    13  N          0.07448000       0.22322000       0.73178000
    14  N          0.92552000       0.72322000       0.26822000
    15  C          0.83609000       0.21763000       0.10738000
    16  C          0.16391000       0.71763000       0.89262000
    17  C          0.75491000       0.17553000       0.16668000
    18  C          0.24509000       0.67553000       0.83332000
    19  H          0.79830000       0.14110000       0.15410000
    20  H          0.20170000       0.64110000       0.84590000
    21  C          0.61161000       0.18193000       0.24419000
    22  C          0.38839000       0.68193000       0.75581000
    23  H          0.55860000       0.15220000       0.28490000
    24  H          0.44140000       0.65220000       0.71510000
    25  C          0.54691000       0.23143000       0.26149000
    26  C          0.45309000       0.73143000       0.73851000
    27  H          0.44880000       0.23600000       0.31440000
    28  H          0.55120000       0.73600000       0.68560000
    29  C          0.62551000       0.27483000       0.20119000
    30  C          0.37449000       0.77483000       0.79881000
    31  H          0.57890000       0.30900000       0.20950000
    32  H          0.42110000       0.80900000       0.79050000
    33  C          0.77281000       0.26763000       0.12849000
    34  C          0.22719000       0.76763000       0.87151000
    35  H          0.83050000       0.29720000       0.09300000
    36  H          0.16950000       0.79720000       0.90700000
    37  C         -0.00909000       0.21243000       0.01968000
    38  C          0.00909000       0.71243000       0.98032000
    39  H          0.08960000       0.23690000       0.07730000
    40  H          0.91040000       0.73690000       0.92270000
    41  C          0.92458000       0.22752000       0.82708000
    42  C          0.07542000       0.72752000       0.17292000
    43  H          0.88450000       0.26490000       0.82150000
    44  H          0.11550000       0.76490000       0.17850000
    45  C          0.76471000       0.19453000       0.73279000
    46  C          0.23529000       0.69453000       0.26721000
    47  H          0.80580000       0.15900000       0.71550000
    48  H          0.19420000       0.65900000       0.28450000
    49  H          0.70990000       0.21030000       0.61870000
    50  H          0.29010000       0.71030000       0.38130000
    51  H          0.67530000       0.19300000       0.80300000
    52  H          0.32470000       0.69300000       0.19700000
    53  C          0.01701100       0.24803000       0.55689000
    54  C         -0.01701100       0.74803000       0.44311000
    55  H          0.11440000       0.24520000       0.49640000
    56  H          0.88560000       0.74520000       0.50360000
    57  H         -0.01080000       0.28500000       0.57030000
    58  H          0.01080000       0.78500000       0.42970000
    59  H          0.90920000       0.23010000       0.48810000
    60  H          0.09080000       0.73010000       0.51190000
    61  C          0.25081000       0.24593000       0.82861000
    62  C          0.74919000       0.74593000       0.17139000
    63  H          0.23410000       0.28270000       0.85570000
    64  H          0.76590000       0.78270000       0.14430000
    65  H          0.33790000       0.24340000       0.75600000
    66  H          0.66210000       0.74340000       0.24400000
    67  H          0.29630000       0.22640000       0.93770000
    68  H          0.70370000       0.72640000       0.06230000
    69  H          0.08990000       0.19420000       0.71380000
    70  H          0.91010000       0.69420000       0.28620000
    71  O          0.34366000       0.57289170       0.39016000
    72  O          0.65634000       0.07289170       0.60984000
    73  H          0.46811000       0.58130000       0.44090000
    74  H          0.53189000       0.08130000       0.55910000
    75  N          0.05128000       0.50772000       0.42128000
    76  N          0.94872000       0.00772000       0.57872000
    77  C          0.42409000       0.51513000       0.17049000
    78  C          0.57591000       0.01513000       0.82951000
    79  C          0.47869000       0.55763000       0.08539000
    80  C          0.52131000       0.05763000       0.91461000
    81  H          0.46270000       0.59210000       0.12410000
    82  H          0.53730000       0.09210000       0.87590000
    83  C          0.55531000       0.55063000       0.94609000
    84  C          0.44469000       0.05063000       0.05391000
    85  H          0.59250000       0.58010000       0.89020000
    86  H          0.40750000       0.08010000       0.10980000
    87  C          0.57811000       0.50063000       0.88769000
    88  C          0.42189000       0.00063000       0.11231000
    89  H          0.63340000       0.49570000       0.79330000
    90  H          0.36660000      -0.00430000       0.20670000
    91  C          0.52061000       0.45813000       0.96629000
    92  C          0.47939000       0.95813000       0.03371000
    93  H          0.53060000       0.42380000       0.92250000
    94  H          0.46940000       0.92380000       0.07750000
    95  C          0.44879000       0.46523000       0.10821000
    96  C          0.55121000       0.96523000       0.89179000
    97  H          0.41510000       0.43540000       0.16520000
    98  H          0.58490000       0.93540000       0.83480000
    99  C          0.34069000       0.52072000       0.32529000
   100  C          0.65931000       0.02072000       0.67471000
   101  H          0.40580000       0.49720000       0.42170000
   102  H          0.59420000      -0.00280000       0.57830000
   103  C          0.14099000       0.50423000       0.27008000
   104  C          0.85901000       0.00423000       0.72992000
   105  H          0.13560000       0.46690000       0.23050000
   106  H          0.86440000       0.96690000       0.76950000
   107  C          0.03431000       0.53723000       0.11881000
   108  C          0.96569000       0.03723000       0.88119000
   109  H          0.04480000       0.57430000       0.15160000
   110  H          0.95520000       0.07430000       0.84840000
   111  H          0.90700000       0.52670000       0.09170000
   112  H          0.09300000       0.02670000       0.90830000
   113  H          0.08220000       0.53170000       0.01560000
   114  H          0.91780000       0.03170000      -0.01560000
   115  C          0.16721000       0.49443000       0.59689000
   116  C          0.83279000       0.99443000       0.40311000
   117  H          0.20520000       0.45770000       0.59770000
   118  H          0.79480000       0.95770000       0.40230000
   119  H          0.09880000       0.49960000       0.68570000
   120  H          0.90120000      -0.00040000       0.31430000
   121  H          0.27380000       0.51710000       0.62260000
   122  H          0.72620000       0.01710000       0.37740000
   123  C          0.88469000       0.47463000       0.38811200
   124  C          0.11531000       0.97463000       0.61188800
   125  H          0.91810000       0.43760000       0.38700000
   126  H          0.08190000       0.93760000       0.61300000
   127  H          0.80490000       0.48400000       0.27470000
   128  H          0.19510000       0.98400000       0.72530000
   129  H          0.82180000       0.48060000       0.48090000
   130  H          0.17820000       0.98060000       0.51910000
   131  H          0.02990000       0.54230000       0.43480000
   132  H          0.97010000       0.04230000       0.56520000
