data_IWEQUX
_symmetry_space_group_name_H-M    'P1'
_symmetry_Int_Tables_number       1
loop_
_symmetry_equiv_pos_site_id
_symmetry_equiv_pos_as_xyz
1 x,y,z
_cell_length_a                   8.1813
_cell_length_b                   8.4213
_cell_length_c                   10.2504
_cell_angle_alpha                98.7746
_cell_angle_beta                 95.5216
_cell_angle_gamma                114.5206
loop_
_atom_site_label
_atom_site_type_symbol
_atom_site_fract_x
_atom_site_fract_y
_atom_site_fract_z
     1  O          0.27782000      -0.02138000       0.10593170
     2  O          0.72218000       0.02138000       0.89406830
     3  N          0.20293000      -0.01567000       0.21365180
     4  N          0.79707000       0.01567000       0.78634820
     5  C          0.15134000       0.11463000       0.25012000
     6  C          0.84866000       0.88537000       0.74988000
     7  H          0.17010000       0.20100000       0.19910000
     8  H          0.82990000       0.79900000       0.80090000
     9  C          0.07214000       0.12203000       0.36042000
    10  C          0.92786000       0.87797000       0.63958000
    11  H          0.03660000       0.21280000       0.38270000
    12  H          0.96340000       0.78720000       0.61730000
    13  C          0.04313000      -0.00297000       0.44045190
    14  C          0.95687000       0.00297000       0.55954810
    15  C          0.09913000       0.86473000       0.40042000
    16  C          0.90087000       0.13527000       0.59958000
    17  H          0.08380000       0.77820000       0.45080000
    18  H          0.91620000       0.22180000       0.54920000
    19  C          0.17633000       0.85983000       0.28802000
    20  C          0.82367000       0.14017000       0.71198000
    21  H          0.21100000       0.76900000       0.26260000
    22  H          0.78900000       0.23100000       0.73740000
    23  Br         0.82727300       0.57840300      -0.00052200
    24  Br         0.17272700       0.42159700       0.00052200
    25  S          0.75250800       0.35041700       0.25161600
    26  S          0.24749200       0.64958300       0.74838400
    27  O          0.68653000       0.27982000       0.36483180
    28  O          0.31347000       0.72018000       0.63516820
    29  O          0.94442000       0.42432000       0.25002000
    30  O          0.05558000       0.57568000       0.74998000
    31  N          0.65123000       0.19602000       0.12262000
    32  N          0.34877000       0.80398000       0.87738000
    33  H          0.53690000       0.12820000       0.12450000
    34  H          0.46310000       0.87180000       0.87550000
    35  H          0.69970000       0.19990000       0.05750000
    36  H          0.30030000       0.80010000       0.94250000
    37  C          0.68143000       0.52293000       0.24282000
    38  C          0.31857000       0.47707000       0.75718000
    39  C          0.59603000       0.56283000       0.34472000
    40  C          0.40397000       0.43717000       0.65528000
    41  H          0.57070000       0.49460000       0.40990000
    42  H          0.42930000       0.50540000       0.59010000
    43  C          0.54794000       0.70273000       0.35073000
    44  C          0.45206000       0.29727000       0.64927000
    45  H          0.48940000       0.72760000       0.41900000
    46  H          0.51060000       0.27240000       0.58100000
    47  C          0.58743000       0.80523000       0.25463000
    48  C          0.41257000       0.19477000       0.74537000
    49  H          0.55850000       0.90150000       0.25960000
    50  H          0.44150000       0.09850000       0.74040000
    51  C          0.66893000       0.76583000       0.15202000
    52  C          0.33107000       0.23417000       0.84798000
    53  H          0.69390000       0.83460000       0.08720000
    54  H          0.30610000       0.16540000       0.91280000
    55  C          0.71453000       0.62383000       0.14432000
    56  C          0.28547000       0.37617000       0.85568000
