data_IWEREI
_symmetry_space_group_name_H-M    'P1'
_symmetry_Int_Tables_number       1
loop_
_symmetry_equiv_pos_site_id
_symmetry_equiv_pos_as_xyz
1 x,y,z
_cell_length_a                   8.74268
_cell_length_b                   5.20615
_cell_length_c                   27.726919
_cell_angle_alpha                90.0
_cell_angle_beta                 102.9352
_cell_angle_gamma                90.0
loop_
_atom_site_label
_atom_site_type_symbol
_atom_site_fract_x
_atom_site_fract_y
_atom_site_fract_z
     1  O          0.68339180       0.19073000       0.91315600
     2  O          0.31660820       0.69073000       0.58684400
     3  O          0.31660820       0.80927000       0.08684400
     4  O          0.68339180       0.30927000       0.41315600
     5  N          0.63662000       0.00464000       0.93618600
     6  N          0.36338000       0.50464000       0.56381400
     7  N          0.36338000      -0.00464000       0.06381400
     8  N          0.63662000       0.49536000       0.43618600
     9  C          0.74062000       0.85724000       0.96844700
    10  C          0.25938000       0.35724000       0.53155300
    11  C          0.25938000       0.14276000       0.03155300
    12  C          0.74062000       0.64276000       0.46844700
    13  H          0.84750000       0.89090000       0.97370000
    14  H          0.15250000       0.39090000       0.52630000
    15  H          0.15250000       0.10910000       0.02630000
    16  H          0.84750000       0.60910000       0.47370000
    17  C          0.68912000       0.66064000       0.99312700
    18  C          0.31088000       0.16064000       0.50687300
    19  C          0.31088000       0.33936000       0.00687300
    20  C          0.68912000       0.83936000       0.49312700
    21  H          0.76200000       0.56180000       0.01500000
    22  H          0.23800000       0.06180000       0.48500000
    23  H          0.23800000       0.43820000       0.98500000
    24  H          0.76200000       0.93820000       0.51500000
    25  C          0.52852000       0.60354000       0.98639600
    26  C          0.47148000       0.10354000       0.51360400
    27  C          0.47148000       0.39646000       0.01360400
    28  C          0.52852000       0.89646000       0.48639600
    29  C          0.42622000       0.75624000       0.95225700
    30  C          0.57378000       0.25624000       0.54774300
    31  C          0.57378000       0.24376000       0.04774300
    32  C          0.42622000       0.74376000       0.45225700
    33  H          0.31890000       0.72390000       0.94580000
    34  H          0.68110000       0.22390000       0.55420000
    35  H          0.68110000       0.27610000       0.05420000
    36  H          0.31890000       0.77610000       0.44580000
    37  C          0.48132000       0.95214000       0.92821700
    38  C          0.51868000       0.45214000       0.57178300
    39  C          0.51868000       0.04786000       0.07178300
    40  C          0.48132000       0.54786000       0.42821700
    41  H          0.41060000       0.05190000       0.90580000
    42  H          0.58940000       0.55190000       0.59420000
    43  H          0.58940000       0.94810000       0.09420000
    44  H          0.41060000       0.44810000       0.40580000
    45  S          0.03598500       0.21531800       0.87965617
    46  S          0.96401500       0.71531800       0.62034383
    47  S          0.96401500       0.78468200       0.12034383
    48  S          0.03598500       0.28468200       0.37965617
    49  O          0.18204150       0.31923000       0.87339500
    50  O          0.81795850       0.81923000       0.62660500
    51  O          0.81795850       0.68077000       0.12660500
    52  O          0.18204150       0.18077000       0.37339500
    53  O          0.03363150       0.96177000       0.90032500
    54  O          0.96636850       0.46177000       0.59967500
    55  O          0.96636850       0.03823000       0.09967500
    56  O          0.03363150       0.53823000       0.40032500
    57  O          0.60191160       0.24062000       0.68406500
    58  O          0.39808840       0.74062000       0.81593500
    59  O          0.39808840       0.75938000       0.31593500
    60  O          0.60191160       0.25938000       0.18406500
    61  N          0.97046190       0.40753000       0.91597600
    62  N          0.02953810       0.90753000       0.58402400
    63  N          0.02953810       0.59247000       0.08402400
    64  N          0.97046190       0.09247000       0.41597600
    65  H          0.88150000       0.35020000       0.91920000
    66  H          0.11850000       0.85020000       0.58080000
    67  H          0.11850000       0.64980000       0.08080000
    68  H          0.88150000       0.14980000       0.41920000
    69  H          0.98000000       0.55570000       0.90690000
    70  H          0.02000000       0.05570000       0.59310000
    71  H          0.02000000       0.44430000       0.09310000
    72  H          0.98000000       0.94430000       0.40690000
    73  C          0.90452000       0.21643000       0.82134700
    74  C          0.09548000       0.71643000       0.67865300
    75  C          0.09548000       0.78357000       0.17865300
    76  C          0.90452000       0.28357000       0.32134700
    77  C          0.78842000       0.03023000       0.80985700
    78  C          0.21158000       0.53023000       0.69014300
    79  C          0.21158000       0.96977000       0.19014300
    80  C          0.78842000       0.46977000       0.30985700
    81  H          0.78000000       0.90460000       0.83300000
    82  H          0.22000000       0.40460000       0.66700000
    83  H          0.22000000       0.09540000       0.16700000
    84  H          0.78000000       0.59540000       0.33300000
    85  C          0.68482000       0.03123000       0.76399700
    86  C          0.31518000       0.53123000       0.73600300
    87  C          0.31518000       0.96877000       0.23600300
    88  C          0.68482000       0.46877000       0.26399700
    89  H          0.60750000       0.90580000       0.75610000
    90  H          0.39250000       0.40580000       0.74390000
    91  H          0.39250000       0.09420000       0.24390000
    92  H          0.60750000       0.59420000       0.25610000
    93  C          0.69742000       0.22173000       0.72970700
    94  C          0.30258000       0.72173000       0.77029300
    95  C          0.30258000       0.77827000       0.27029300
    96  C          0.69742000       0.27827000       0.22970700
    97  C          0.81302000       0.41143000       0.74177700
    98  C          0.18698000       0.91143000       0.75822300
    99  C          0.18698000       0.58857000       0.25822300
   100  C          0.81302000       0.08857000       0.24177700
   101  H          0.81990000       0.53990000       0.71900000
   102  H          0.18010000       0.03990000       0.78100000
   103  H          0.18010000       0.46010000       0.28100000
   104  H          0.81990000       0.96010000       0.21900000
   105  C          0.91652000       0.40853000       0.78721700
   106  C          0.08348000       0.90853000       0.71278300
   107  C          0.08348000       0.59147000       0.21278300
   108  C          0.91652000       0.09147000       0.28721700
   109  H         -0.00600000       0.53370000       0.79510000
   110  H          0.00600000       0.03370000       0.70490000
   111  H          0.00600000       0.46630000       0.20490000
   112  H         -0.00600000       0.96630000       0.29510000
   113  C          0.49752000       0.02984000       0.66765700
   114  C          0.50248000       0.52984000       0.83234300
   115  C          0.50248000       0.97016000       0.33234300
   116  C          0.49752000       0.47016000       0.16765700
   117  H          0.55660000       0.87310000       0.67020000
   118  H          0.44340000       0.37310000       0.82980000
   119  H          0.44340000       0.12690000       0.32980000
   120  H          0.55660000       0.62690000       0.17020000
   121  H          0.44390000       0.05700000       0.63380000
   122  H          0.55610000       0.55700000       0.86620000
   123  H          0.55610000       0.94300000       0.36620000
   124  H          0.44390000       0.44300000       0.13380000
   125  H          0.42210000       0.01820000       0.68800000
   126  H          0.57790000       0.51820000       0.81200000
   127  H          0.57790000      -0.01820000       0.31200000
   128  H          0.42210000       0.48180000       0.18800000
