data_IWURIE
_symmetry_space_group_name_H-M    'P1'
_symmetry_Int_Tables_number       1
loop_
_symmetry_equiv_pos_site_id
_symmetry_equiv_pos_as_xyz
1 x,y,z
_cell_length_a                   5.25882
_cell_length_b                   9.91404
_cell_length_c                   20.18148
_cell_angle_alpha                90.0
_cell_angle_beta                 91.3552
_cell_angle_gamma                90.0
loop_
_atom_site_label
_atom_site_type_symbol
_atom_site_fract_x
_atom_site_fract_y
_atom_site_fract_z
     1  S          0.29238600       0.49794300       0.42511200
     2  S          0.70761400      -0.00205700       0.07488800
     3  S          0.70761400       0.50205700       0.57488800
     4  S          0.29238600       0.00205700       0.92511200
     5  N          0.83842000       0.24981120       0.24035600
     6  N          0.16158000       0.74981120       0.25964400
     7  N          0.16158000       0.75018880       0.75964400
     8  N          0.83842000       0.25018880       0.74035600
     9  C          0.05042000       0.45195140       0.47675600
    10  C          0.94958000       0.95195140       0.02324400
    11  C          0.94958000       0.54804860       0.52324400
    12  C          0.05042000       0.04804860       0.97675600
    13  C         -0.01843000       0.32000140       0.46620700
    14  C          0.01843000       0.82000140       0.03379300
    15  C          0.01843000       0.67999860       0.53379300
    16  C         -0.01843000       0.17999860       0.96620700
    17  H          0.85084300       0.27628300       0.48976300
    18  H          0.14915700       0.77628300       0.01023700
    19  H          0.14915700       0.72371700       0.51023700
    20  H          0.85084300       0.22371700       0.98976300
    21  C          0.12383000       0.25566140       0.41708700
    22  C          0.87617000       0.75566140       0.08291300
    23  C          0.87617000       0.74433860       0.58291300
    24  C          0.12383000       0.24433860       0.91708700
    25  H          0.09810000       0.16457800       0.40392300
    26  H          0.90190000       0.66457800       0.09607700
    27  H          0.90190000       0.83542200       0.59607700
    28  H          0.09810000       0.33542200       0.90392300
    29  C          0.30322000       0.33844130       0.39024600
    30  C          0.69678000       0.83844130       0.10975400
    31  C          0.69678000       0.66155870       0.60975400
    32  C          0.30322000       0.16155870       0.89024600
    33  C          0.48672000       0.30829140       0.33889600
    34  C          0.51328000       0.80829140       0.16110400
    35  C          0.51328000       0.69170860       0.66110400
    36  C          0.48672000       0.19170860       0.83889600
    37  C          0.66443000       0.40381140       0.31884700
    38  C          0.33557000       0.90381140       0.18115300
    39  C          0.33557000       0.59618860       0.68115300
    40  C          0.66443000       0.09618860       0.81884700
    41  H          0.67038000       0.49051700       0.33886200
    42  H          0.32962000      -0.00948300       0.16113800
    43  H          0.32962000       0.50948300       0.66113800
    44  H          0.67038000       0.00948300       0.83886200
    45  C          0.83133000       0.37072150       0.26959700
    46  C          0.16867000       0.87072150       0.23040300
    47  C          0.16867000       0.62927850       0.73040300
    48  C          0.83133000       0.12927850       0.76959700
    49  H          0.94775800       0.43769600       0.25569700
    50  H          0.05224200       0.93769600       0.24430300
    51  H          0.05224200       0.56230400       0.74430300
    52  H          0.94775800       0.06230400       0.75569700
    53  C          0.67083000       0.15839140       0.26038700
    54  C          0.32917000       0.65839140       0.23961300
    55  C          0.32917000       0.84160860       0.73961300
    56  C          0.67083000       0.34160860       0.76038700
    57  H          0.67390200       0.07158700       0.24047600
    58  H          0.32609800       0.57158700       0.25952400
    59  H          0.32609800       0.92841300       0.75952400
    60  H          0.67390200       0.42841300       0.74047600
    61  C          0.49263000       0.18215140       0.30834700
    62  C          0.50737000       0.68215140       0.19165300
    63  C          0.50737000       0.81784860       0.69165300
    64  C          0.49263000       0.31784860       0.80834700
    65  H          0.37612300       0.11360400       0.32030300
    66  H          0.62387700       0.61360400       0.17969700
    67  H          0.62387700       0.88639600       0.67969700
    68  H          0.37612300       0.38639600       0.82030300
    69  O          0.19762000       0.24163100       0.14832500
    70  O          0.80238000       0.74163100       0.35167500
    71  O          0.80238000       0.75836900       0.85167500
    72  O          0.19762000       0.25836900       0.64832500
    73  H          0.06540000       0.24107000       0.17909000
    74  H          0.93460000       0.74107000       0.32091000
    75  H          0.93460000       0.75893000       0.82091000
    76  H          0.06540000       0.25893000       0.67909000
    77  O          0.03736190       0.44441110       0.12387500
    78  O          0.96263810       0.94441110       0.37612500
    79  O          0.96263810       0.55558890       0.87612500
    80  O          0.03736190       0.05558890       0.62387500
    81  C          0.39362000       0.49617140       0.02508600
    82  C          0.60638000      -0.00382860       0.47491400
    83  C          0.60638000       0.50382860       0.97491400
    84  C          0.39362000       0.00382860       0.52508600
    85  H          0.40128400       0.57707700       0.05381600
    86  H          0.59871600       0.07707700       0.44618400
    87  H          0.59871600       0.42292300       0.94618400
    88  H          0.40128400       0.92292300       0.55381600
    89  H          0.22729600       0.49663200       0.00105400
    90  H          0.77270400      -0.00336800       0.49894600
    91  H          0.77270400       0.50336800      -0.00105400
    92  H          0.22729600       0.00336800       0.50105400
    93  C          0.41202000       0.37042140       0.06822700
    94  C          0.58798000       0.87042140       0.43177300
    95  C          0.58798000       0.62957860       0.93177300
    96  C          0.41202000       0.12957860       0.56822700
    97  H          0.41315000       0.28980800       0.03928200
    98  H          0.58685000       0.78980800       0.46071800
    99  H          0.58685000       0.71019200       0.96071800
   100  H          0.41315000       0.21019200       0.53928200
   101  H          0.57502500       0.37230100       0.09376500
   102  H          0.42497500       0.87230100       0.40623500
   103  H          0.42497500       0.62769900       0.90623500
   104  H          0.57502500       0.12769900       0.59376500
   105  C          0.19602000       0.35798140       0.11588600
   106  C          0.80398000       0.85798140       0.38411400
   107  C          0.80398000       0.64201860       0.88411400
   108  C          0.19602000       0.14201860       0.61588600
