data_IWUROK
_symmetry_space_group_name_H-M    'P1'
_symmetry_Int_Tables_number       1
loop_
_symmetry_equiv_pos_site_id
_symmetry_equiv_pos_as_xyz
1 x,y,z
_cell_length_a                   22.73421
_cell_length_b                   5.38362
_cell_length_c                   12.65566
_cell_angle_alpha                90.0
_cell_angle_beta                 102.5232
_cell_angle_gamma                90.0
loop_
_atom_site_label
_atom_site_type_symbol
_atom_site_fract_x
_atom_site_fract_y
_atom_site_fract_z
     1  S          0.07403200       0.12803100       0.42793400
     2  S          0.92596800       0.62803100       0.07206600
     3  S          0.92596800       0.87196900       0.57206600
     4  S          0.07403200       0.37196900       0.92793400
     5  N          0.20745800       0.20943000       0.21938150
     6  N          0.79254200       0.70943000       0.28061850
     7  N          0.79254200       0.79057000       0.78061850
     8  N          0.20745800       0.29057000       0.71938150
     9  C          0.01547900       0.95636000       0.45879160
    10  C          0.98452100       0.45636000       0.04120840
    11  C          0.98452100       0.04364000       0.54120840
    12  C          0.01547900       0.54364000       0.95879160
    13  C          0.00525900       0.74586000       0.39692160
    14  C         -0.00525900       0.24586000       0.10307840
    15  C         -0.00525900       0.25414000       0.60307840
    16  C          0.00525900       0.75414000       0.89692160
    17  H          0.97526200       0.62677200       0.40259500
    18  H          0.02473800       0.12677200       0.09740500
    19  H          0.02473800       0.37322800       0.59740500
    20  H          0.97526200       0.87322800       0.90259500
    21  C          0.04405900       0.72376000       0.32340170
    22  C          0.95594100       0.22376000       0.17659830
    23  C          0.95594100       0.27624000       0.67659830
    24  C          0.04405900       0.77624000       0.82340170
    25  H          0.04250100       0.58858700       0.27463900
    26  H          0.95749900       0.08858700       0.22536100
    27  H          0.95749900       0.41141300       0.72536100
    28  H          0.04250100       0.91141300       0.77463900
    29  C          0.08390900       0.91636000       0.32968160
    30  C          0.91609100       0.41636000       0.17031840
    31  C          0.91609100       0.08364000       0.67031840
    32  C          0.08390900       0.58364000       0.82968160
    33  C          0.12748900       0.96076000       0.26152160
    34  C          0.87251100       0.46076000       0.23847840
    35  C          0.87251100       0.03924000       0.73847840
    36  C          0.12748900       0.53924000       0.76152160
    37  C          0.12907900       0.80856000       0.17273170
    38  C          0.87092100       0.30856000       0.32726830
    39  C          0.87092100       0.19144000       0.82726830
    40  C          0.12907900       0.69144000       0.67273170
    41  H          0.10285800       0.66971000       0.15711300
    42  H          0.89714200       0.16971000       0.34288700
    43  H          0.89714200       0.33029000       0.84288700
    44  H          0.10285800       0.83029000       0.65711300
    45  C          0.16921000       0.86216000       0.10765180
    46  C          0.83079000       0.36216000       0.39234820
    47  C          0.83079000       0.13784000       0.89234820
    48  C          0.16921000       0.63784000       0.60765180
    49  H          0.17048800       0.76218700       0.04633600
    50  H          0.82951200       0.26218700       0.45366400
    51  H          0.82951200       0.23781300       0.95366400
    52  H          0.17048800       0.73781300       0.54633600
    53  C          0.20742100       0.06414000       0.13353180
    54  C          0.79257900       0.56414000       0.36646820
    55  C          0.79257900       0.93586000       0.86646820
    56  C          0.20742100       0.43586000       0.63353180
    57  H          0.23472000       0.10084600       0.08850900
    58  H          0.76528000       0.60084600       0.41149100
    59  H          0.76528000       0.89915400       0.91149100
    60  H          0.23472000       0.39915400       0.58850900
    61  C          0.16801900       0.15784000       0.28133170
    62  C          0.83198100       0.65784000       0.21866830
    63  C          0.83198100       0.84216000       0.71866830
    64  C          0.16801900       0.34216000       0.78133170
    65  H          0.16773000       0.26143000       0.34198100
    66  H          0.83227000       0.76143000       0.15801900
    67  H          0.83227000       0.73857000       0.65801900
    68  H          0.16773000       0.23857000       0.84198100
    69  F          0.45622600       0.09873000       0.27698120
    70  F          0.54377400       0.59873000       0.22301880
    71  F          0.54377400       0.90127000       0.72301880
    72  F          0.45622600       0.40127000       0.77698120
    73  F          0.50547600       0.23673000       0.43015120
    74  F          0.49452400       0.73673000       0.06984880
    75  F          0.49452400       0.76327000       0.56984880
    76  F          0.50547600       0.26327000       0.93015120
    77  F          0.44099700       0.46843000       0.32759140
    78  F          0.55900300       0.96843000       0.17240860
    79  F          0.55900300       0.53157000       0.67240860
    80  F          0.44099700       0.03157000       0.82759140
    81  O          0.28687700       0.57143000       0.28473120
    82  O          0.71312300       0.07143000       0.21526880
    83  O          0.71312300       0.42857000       0.71526880
    84  O          0.28687700       0.92857000       0.78473120
    85  H          0.25851100       0.44850000       0.26021300
    86  H          0.74148900       0.94850000       0.23978700
    87  H          0.74148900       0.55150000       0.73978700
    88  H          0.25851100       0.05150000       0.76021300
    89  O          0.23471700       0.60843000       0.41471120
    90  O          0.76528300       0.10843000       0.08528880
    91  O          0.76528300       0.39157000       0.58528880
    92  O          0.23471700       0.89157000       0.91471120
    93  C          0.27621900       0.67154000       0.37418170
    94  C          0.72378100       0.17154000       0.12581830
    95  C          0.72378100       0.32846000       0.62581830
    96  C          0.27621900       0.82846000       0.87418170
    97  C          0.31940900       0.87124000       0.42124170
    98  C          0.68059100       0.37124000       0.07875830
    99  C          0.68059100       0.12876000       0.57875830
   100  C          0.31940900       0.62876000       0.92124170
   101  C          0.36404900       0.95424000       0.36981180
   102  C          0.63595100       0.45424000       0.13018820
   103  C          0.63595100       0.04576000       0.63018820
   104  C          0.36404900       0.54576000       0.86981180
   105  H          0.36773300       0.88305900       0.30286100
   106  H          0.63226700       0.38305900       0.19713900
   107  H          0.63226700       0.11694100       0.69713900
   108  H          0.36773300       0.61694100       0.80286100
   109  C          0.40306900       0.14104000       0.41669180
   110  C          0.59693100       0.64104000       0.08330820
   111  C          0.59693100       0.85896000       0.58330820
   112  C          0.40306900       0.35896000       0.91669180
   113  C          0.39817100       0.24605000       0.51512000
   114  C          0.60182900       0.74605000       0.98488000
   115  C          0.60182900       0.75395000       0.48488000
   116  C          0.39817100       0.25395000       0.01512000
   117  H          0.42485200       0.37470100       0.54661800
   118  H          0.57514800       0.87470100       0.95338200
   119  H          0.57514800       0.62529900       0.45338200
   120  H          0.42485200       0.12529900       0.04661800
   121  C          0.35410110       0.16115000       0.56652000
   122  C          0.64589890       0.66115000       0.93348000
   123  C          0.64589890       0.83885000       0.43348000
   124  C          0.35410110       0.33885000       0.06652000
   125  H          0.35079300       0.23078000       0.63392300
   126  H          0.64920700       0.73078000       0.86607700
   127  H          0.64920700       0.76922000       0.36607700
   128  H          0.35079300       0.26922000       0.13392300
   129  C          0.31486100      -0.02475000       0.52002180
   130  C          0.68513900       0.47525000       0.97997820
   131  C          0.68513900       0.02475000       0.47997820
   132  C          0.31486100       0.52475000       0.02002180
   133  H          0.28466800       0.91823800       0.55563200
   134  H          0.71533200       0.41823800       0.94436800
   135  H          0.71533200       0.08176200       0.44436800
   136  H          0.28466800       0.58176200       0.05563200
   137  C          0.45101000       0.23474000       0.36292000
   138  C          0.54899000       0.73474000       0.13708000
   139  C          0.54899000       0.76526000       0.63708000
   140  C          0.45101000       0.26526000       0.86292000
