data_IXASIL
_symmetry_space_group_name_H-M    'P1'
_symmetry_Int_Tables_number       1
loop_
_symmetry_equiv_pos_site_id
_symmetry_equiv_pos_as_xyz
1 x,y,z
_cell_length_a                   9.55999
_cell_length_b                   10.50749
_cell_length_c                   13.994612
_cell_angle_alpha                90.0
_cell_angle_beta                 91.54801
_cell_angle_gamma                90.0
loop_
_atom_site_label
_atom_site_type_symbol
_atom_site_fract_x
_atom_site_fract_y
_atom_site_fract_z
     1  S          0.01190600       0.98134600       0.21519400
     2  S         -0.01190600       0.48134600       0.78480600
     3  O          0.86123150       0.97969160       0.15969900
     4  O          0.13876850       0.47969160       0.84030100
     5  O          0.95604140       0.90872150       0.30809100
     6  O          0.04395860       0.40872150       0.69190900
     7  C          0.75052000       0.91632000       0.20975120
     8  C          0.24948000       0.41632000       0.79024880
     9  H          0.66580000       0.96880000       0.20730000
    10  H          0.33420000       0.46880000       0.79270000
    11  C          0.80515190       0.90452000       0.31352120
    12  C          0.19484810       0.40452000       0.68647880
    13  H          0.77730000       0.82170000       0.33900000
    14  H          0.22270000       0.32170000       0.66100000
    15  C          0.75572000       0.01037180       0.38112130
    16  C          0.24428000       0.51037180       0.61887870
    17  O          0.77522170       0.13172140       0.33724120
    18  O          0.22477830       0.63172140       0.66275880
    19  H          0.85640000       0.13830000       0.32050000
    20  H          0.14360000       0.63830000       0.67950000
    21  C          0.83657190       0.00292000       0.47750130
    22  C          0.16342810       0.50292000       0.52249870
    23  C          0.88462000       0.11332000       0.52117160
    24  C          0.11538000       0.61332000       0.47882840
    25  H          0.87100000       0.19130000       0.49100000
    26  H          0.12900000       0.69130000       0.50900000
    27  C          0.86092000       0.88862000       0.52457150
    28  C          0.13908000       0.38862000       0.47542850
    29  H          0.83180000       0.81300000       0.49570000
    30  H          0.16820000       0.31300000       0.50430000
    31  C          0.97382000      -0.00527000       0.65640170
    32  C          0.02618000       0.49473000       0.34359830
    33  H          0.01850000      -0.00750000       0.71620000
    34  H          0.98150000       0.49250000       0.28380000
    35  C          0.92753000       0.88443000       0.61343180
    36  C          0.07247000       0.38443000       0.38656820
    37  H          0.94100000       0.80680000       0.64420000
    38  H          0.05900000       0.30680000       0.35580000
    39  C          0.95313000       0.10823000       0.60985190
    40  C          0.04687000       0.60823000       0.39014810
    41  H         -0.01460000       0.18310000       0.63820000
    42  H          0.01460000       0.68310000       0.36180000
    43  C          0.59722000      -0.00268000       0.39625130
    44  C          0.40278000       0.49732000       0.60374870
    45  C          0.54132000       0.89143000       0.44043160
    46  C          0.45868000       0.39143000       0.55956840
    47  H          0.60030000       0.82580000       0.46080000
    48  H          0.39970000       0.32580000       0.53920000
    49  C          0.50673000       0.09223000       0.36532000
    50  C          0.49327000       0.59223000       0.63468000
    51  H          0.54160000       0.16370000       0.33490000
    52  H          0.45840000       0.66370000       0.66510000
    53  C          0.39913000       0.88183000       0.45463180
    54  C          0.60087000       0.38183000       0.54536820
    55  H          0.36340000       0.81050000       0.48500000
    56  H          0.63660000       0.31050000       0.51500000
    57  C          0.31043000       0.97735000       0.42402000
    58  C          0.68957000       0.47735000       0.57598000
    59  H          0.21470000       0.97110000       0.43340000
    60  H          0.78530000       0.47110000       0.56660000
    61  C          0.36423000       0.08154000       0.37953000
    62  C          0.63577000       0.58154000       0.62047000
    63  H          0.30440000       0.14620000       0.35850000
    64  H          0.69560000       0.64620000       0.64150000
    65  C          0.72132000       0.78768180       0.16014130
    66  C          0.27868000       0.28768180       0.83985870
    67  C          0.60932000       0.71632000       0.21502120
    68  C          0.39068000       0.21632000       0.78497880
    69  C          0.64393000       0.60892000       0.26883150
    70  C          0.35607000       0.10892000       0.73116850
    71  H          0.73550000       0.57930000       0.27110000
    72  H          0.26450000       0.07930000       0.72890000
    73  C          0.37193000       0.69463000       0.26336170
    74  C          0.62807000       0.19463000       0.73663830
    75  H          0.27990000       0.72350000       0.26180000
    76  H          0.72010000       0.22350000       0.73820000
    77  C          0.54193000       0.54643000       0.31885170
    78  C          0.45807000       0.04643000       0.68114830
    79  H          0.56580000       0.47480000       0.35480000
    80  H          0.43420000       0.97480000       0.64520000
    81  C          0.47212000       0.75842000       0.21267150
    82  C          0.52788000       0.25842000       0.78732850
    83  H          0.44730000       0.82990000       0.17690000
    84  H          0.55270000       0.32990000       0.82310000
    85  C          0.40753000       0.58803000       0.31633180
    86  C          0.59247000       0.08803000       0.68366820
    87  H          0.33970000       0.54500000       0.35010000
    88  H          0.66030000       0.04500000       0.64990000
    89  C          0.67352000       0.80284190       0.05510130
    90  C          0.32648000       0.30284190       0.94489870
    91  C          0.62892000       0.91572000       0.01449140
    92  C          0.37108000       0.41572000       0.98550860
    93  H          0.62510000      -0.01130000       0.05190000
    94  H          0.37490000       0.48870000       0.94810000
    95  C          0.67513000       0.69502000      -0.00215150
    96  C          0.32487000       0.19502000       0.00215150
    97  H          0.70260000       0.61750000       0.02440000
    98  H          0.29740000       0.11750000       0.97560000
    99  C          0.63633000       0.70103000       0.90178830
   100  C          0.36367000       0.20103000       0.09821170
   101  H          0.63820000       0.62800000       0.86430000
   102  H          0.36180000       0.12800000       0.13570000
   103  C          0.58963000       0.92182000       0.91835840
   104  C          0.41037000       0.42182000       0.08164160
   105  H          0.55930000      -0.00140000       0.89200000
   106  H          0.44070000       0.49860000       0.10800000
   107  C          0.59513000       0.81513000       0.86206840
   108  C          0.40487000       0.31513000       0.13793160
   109  H          0.57110000       0.82000000       0.79730000
   110  H          0.42890000       0.32000000       0.20270000
   111  O          0.84670150       0.71451150       0.16650100
   112  O          0.15329850       0.21451150       0.83349900
   113  H          0.88970000       0.72230000       0.11690000
   114  H          0.11030000       0.22230000       0.88310000
   115  O          0.03822000       0.11156190       0.24148150
   116  O          0.96178000       0.61156190       0.75851850
   117  O          0.02053000       0.75413000       0.01842000
   118  O          0.97947000       0.25413000       0.98158000
   119  C          0.15183000       0.70864000       0.03173000
   120  C          0.84817000       0.20864000       0.96827000
   121  H          0.17880000       0.63980000       0.06970000
   122  H          0.82120000       0.13980000       0.93030000
   123  C          0.15344000       0.84954000       0.90253000
   124  C          0.84656000       0.34954000       0.09747000
   125  H          0.15580000       0.80420000       0.84210000
   126  H          0.84420000       0.30420000       0.15790000
   127  H          0.18220000       0.93690000       0.89260000
   128  H          0.81780000       0.43690000       0.10740000
   129  C          0.01404000       0.84345000       0.94343000
   130  C         -0.01404000       0.34345000       0.05657000
   131  H         -0.01260000       0.92620000       0.96750000
   132  H          0.01260000       0.42620000       0.03250000
   133  H          0.94530000       0.81720000       0.89510000
   134  H          0.05470000       0.31720000       0.10490000
   135  C          0.24205000       0.78716000       0.97565000
   136  C          0.75795000       0.28716000       0.02435000
   137  H          0.31270000       0.73540000       0.94590000
   138  H          0.68730000       0.23540000       0.05410000
   139  H          0.28860000       0.85020000       0.01590000
   140  H          0.71140000       0.35020000       0.98410000
