data_IXOHAE
_symmetry_space_group_name_H-M    'P1'
_symmetry_Int_Tables_number       1
loop_
_symmetry_equiv_pos_site_id
_symmetry_equiv_pos_as_xyz
1 x,y,z
_cell_length_a                   11.1206
_cell_length_b                   5.3433
_cell_length_c                   18.8169
_cell_angle_alpha                90.0
_cell_angle_beta                 97.5268
_cell_angle_gamma                90.0
loop_
_atom_site_label
_atom_site_type_symbol
_atom_site_fract_x
_atom_site_fract_y
_atom_site_fract_z
     1  S          0.44067400       0.20934800       0.92100200
     2  S          0.05932600       0.70934800       0.57899800
     3  S          0.55932600       0.79065200       0.07899800
     4  S          0.94067400       0.29065200       0.42100200
     5  O          0.65901120       0.77258000       0.82945700
     6  O          0.84098880       0.27258000       0.67054300
     7  O          0.34098880       0.22742000       0.17054300
     8  O          0.15901120       0.72742000       0.32945700
     9  O          0.45611110       0.80528000       0.82205700
    10  O          0.04388890       0.30528000       0.67794300
    11  O          0.54388890       0.19472000       0.17794300
    12  O          0.95611110       0.69472000       0.32205700
    13  H          0.45720000       0.68490000       0.79340000
    14  H          0.04280000       0.18490000       0.70660000
    15  H          0.54280000       0.31510000       0.20660000
    16  H          0.95720000       0.81510000       0.29340000
    17  N          0.64561130       0.37683000       0.98274800
    18  N          0.85438870       0.87683000       0.51725200
    19  N          0.35438870       0.62317000       0.01725200
    20  N          0.14561130       0.12317000       0.48274800
    21  C          0.52767150       0.40713000       0.97909900
    22  C          0.97232850       0.90713000       0.52090100
    23  C          0.47232850       0.59287000       0.02090100
    24  C          0.02767150       0.09287000       0.47909900
    25  C          0.67250150       0.19173000       0.93689900
    26  C          0.82749850       0.69173000       0.56310100
    27  C          0.32749850       0.80827000       0.06310100
    28  C          0.17250150       0.30827000       0.43689900
    29  C          0.57257150       0.07843000       0.89904900
    30  C          0.92742850       0.57843000       0.60095100
    31  C          0.42742850       0.92157000       0.10095100
    32  C          0.07257150       0.42157000       0.39904900
    33  C          0.56818160       0.86977000       0.84672900
    34  C          0.93181840       0.36977000       0.65327100
    35  C          0.43181840       0.13023000       0.15327100
    36  C          0.06818160       0.63023000       0.34672900
    37  C          0.80331150       0.12303000       0.93485100
    38  C          0.69668850       0.62303000       0.56514900
    39  C          0.19668850       0.87697000       0.06514900
    40  C          0.30331150       0.37697000       0.43485100
    41  H          0.85540000       0.26870000       0.95010000
    42  H          0.64460000       0.76870000       0.54990000
    43  H          0.14460000       0.73130000       0.04990000
    44  H          0.35540000       0.23130000       0.45010000
    45  H          0.81540000       0.08050000       0.88510000
    46  H          0.68460000       0.58050000       0.61490000
    47  H          0.18460000       0.91950000       0.11490000
    48  H          0.31540000       0.41950000       0.38510000
    49  C          0.84132160       0.90067000       0.98382110
    50  C          0.65867840       0.40067000       0.51617890
    51  C          0.15867840       0.09933000       0.01617890
    52  C          0.34132160       0.59933000       0.48382110
    53  H          0.83810000       0.94860000       0.03380000
    54  H          0.66190000       0.44860000       0.46620000
    55  H          0.16190000       0.05140000       0.96620000
    56  H          0.33810000       0.55140000       0.53380000
    57  H          0.92420000       0.85070000       0.97790000
    58  H          0.57580000       0.35070000       0.52210000
    59  H          0.07580000       0.14930000       0.02210000
    60  H          0.42420000       0.64930000       0.47790000
    61  H          0.78600000       0.76020000       0.97110000
    62  H          0.71400000       0.26020000       0.52890000
    63  H          0.21400000       0.23980000       0.02890000
    64  H          0.28600000       0.73980000       0.47110000
    65  N          0.44996130       0.44027000       0.73289800
    66  N          0.05003870       0.94027000       0.76710200
    67  N          0.55003870       0.55973000       0.26710200
    68  N          0.94996130       0.05973000       0.23289800
    69  C          0.55237170       0.32657000       0.72008100
    70  C          0.94762830       0.82657000       0.77991900
    71  C          0.44762830       0.67343000       0.27991900
    72  C          0.05237170       0.17343000       0.22008100
    73  H          0.62760000       0.38540000       0.74400000
    74  H          0.87240000       0.88540000       0.75600000
    75  H          0.37240000       0.61460000       0.25600000
    76  H          0.12760000       0.11460000       0.24400000
    77  C          0.55252190       0.12786000       0.67359110
    78  C          0.94747810       0.62786000       0.82640890
    79  C          0.44747810       0.87214000       0.32640890
    80  C          0.05252190       0.37214000       0.17359110
    81  H          0.62650000       0.05050000       0.66570000
    82  H          0.87350000       0.55050000       0.83430000
    83  H          0.37350000       0.94950000       0.33430000
    84  H          0.12650000       0.44950000       0.16570000
    85  C          0.44302190       0.04276000       0.63854110
    86  C          0.05697810       0.54276000       0.86145890
    87  C          0.55697810       0.95724000       0.36145890
    88  C          0.94302190       0.45724000       0.13854110
    89  H          0.44080000       0.90550000       0.60630000
    90  H          0.05920000       0.40550000       0.89370000
    91  H          0.55920000       0.09450000       0.39370000
    92  H          0.94080000       0.59450000       0.10630000
    93  C          0.33694190       0.16006000       0.65097110
    94  C          0.16305810       0.66006000       0.84902890
    95  C          0.66305810       0.83994000       0.34902890
    96  C          0.83694190       0.33994000       0.15097110
    97  H          0.26080000       0.10600000       0.62710000
    98  H          0.23920000       0.60600000       0.87290000
    99  H          0.73920000       0.89400000       0.37290000
   100  H          0.76080000       0.39400000       0.12710000
   101  C          0.34359180       0.35656000       0.69859100
   102  C          0.15640820       0.85656000       0.80140900
   103  C          0.65640820       0.64344000       0.30140900
   104  C          0.84359180       0.14344000       0.19859100
   105  H          0.27070000       0.43610000       0.70760000
   106  H          0.22930000       0.93610000       0.79240000
   107  H          0.72930000       0.56390000       0.29240000
   108  H          0.77070000       0.06390000       0.20760000
