data_IXUJAO
_symmetry_space_group_name_H-M    'P1'
_symmetry_Int_Tables_number       1
loop_
_symmetry_equiv_pos_site_id
_symmetry_equiv_pos_as_xyz
1 x,y,z
_cell_length_a                   8.498017
_cell_length_b                   17.8854
_cell_length_c                   21.9534
_cell_angle_alpha                90.0
_cell_angle_beta                 90.0
_cell_angle_gamma                90.0
loop_
_atom_site_label
_atom_site_type_symbol
_atom_site_fract_x
_atom_site_fract_y
_atom_site_fract_z
     1  Br         0.51741800       0.66200300       0.35185300
     2  Br         0.98258200       0.33799700       0.85185300
     3  Br         0.01741800       0.83799700       0.14814700
     4  Br         0.48258200       0.16200300       0.64814700
     5  Br         0.48258200       0.33799700       0.64814700
     6  Br         0.01741800       0.66200300       0.14814700
     7  Br         0.98258200       0.16200300       0.85185300
     8  Br         0.51741800       0.83799700       0.35185300
     9  Br         0.22027100       0.75000000       0.30308400
    10  Br         0.27972900       0.25000000       0.80308400
    11  Br         0.72027100       0.75000000       0.19691600
    12  Br         0.77972900       0.25000000       0.69691600
    13  C          0.39088000       0.75000000       0.36083000
    14  C          0.10912000       0.25000000       0.86083000
    15  C          0.89088000       0.75000000       0.13917000
    16  C          0.60912000       0.25000000       0.63917000
    17  H          0.34500000       0.75000000       0.40280000
    18  H          0.15500000       0.25000000       0.90280000
    19  H          0.84500000       0.75000000       0.09720000
    20  H          0.65500000       0.25000000       0.59720000
    21  C          0.58437000       0.75000000       0.68903000
    22  C          0.91563000       0.25000000       0.18903000
    23  C          0.08437000       0.75000000       0.81097000
    24  C          0.41563000       0.25000000       0.31097000
    25  C          0.58675000       0.68542000       0.72712000
    26  C          0.91325000       0.31458000       0.22712000
    27  C          0.08675000       0.81458000       0.77288000
    28  C          0.41325000       0.18542000       0.27288000
    29  C          0.41325000       0.31458000       0.27288000
    30  C          0.08675000       0.68542000       0.77288000
    31  C          0.91325000       0.18542000       0.22712000
    32  C          0.58675000       0.81458000       0.72712000
    33  C          0.59015000       0.71002000       0.78929180
    34  C          0.90985000       0.28998000       0.28929180
    35  C          0.09015000       0.78998000       0.71070820
    36  C          0.40985000       0.21002000       0.21070820
    37  C          0.40985000       0.28998000       0.21070820
    38  C          0.09015000       0.71002000       0.71070820
    39  C          0.90985000       0.21002000       0.28929180
    40  C          0.59015000       0.78998000       0.78929180
    41  C          0.49177000       0.75000000       0.63773000
    42  C          0.00823000       0.25000000       0.13773000
    43  C         -0.00823000       0.75000000       0.86227000
    44  C          0.50823000       0.25000000       0.36227000
    45  C          0.41385000       0.68312000       0.61606190
    46  C          0.08615000       0.31688000       0.11606190
    47  C          0.91385000       0.81688000       0.88393810
    48  C          0.58615000       0.18312000       0.38393810
    49  C          0.58615000       0.31688000       0.38393810
    50  C          0.91385000       0.68312000       0.88393810
    51  C          0.08615000       0.18312000       0.11606190
    52  C          0.41385000       0.81688000       0.61606190
    53  C          0.41495000       0.61962000       0.65362190
    54  C          0.08505000       0.38038000       0.15362190
    55  C          0.91495000       0.88038000       0.84637810
    56  C          0.58505000       0.11962000       0.34637810
    57  C          0.58505000       0.38038000       0.34637810
    58  C          0.91495000       0.61962000       0.84637810
    59  C          0.08505000       0.11962000       0.15362190
    60  C          0.41495000       0.88038000       0.65362190
    61  C          0.49485000       0.62512000       0.71182190
    62  C          0.00515000       0.37488000       0.21182190
    63  C         -0.00515000       0.87488000       0.78817810
    64  C          0.50515000       0.12512000       0.28817810
    65  C          0.50515000       0.37488000       0.28817810
    66  C         -0.00515000       0.62512000       0.78817810
    67  C          0.00515000       0.12512000       0.21182190
    68  C          0.49485000       0.87488000       0.71182190
    69  C          0.42015000       0.57872000       0.75733190
    70  C          0.07985000       0.42128000       0.25733190
    71  C          0.92015000       0.92128000       0.74266810
    72  C          0.57985000       0.07872000       0.24266810
    73  C          0.57985000       0.42128000       0.24266810
    74  C          0.92015000       0.57872000       0.74266810
    75  C          0.07985000       0.07872000       0.25733190
    76  C          0.42015000       0.92128000       0.75733190
    77  C          0.42415000       0.60262000       0.81831190
    78  C          0.07585000       0.39738000       0.31831190
    79  C          0.92415000       0.89738000       0.68168810
    80  C          0.57585000       0.10262000       0.18168810
    81  C          0.57585000       0.39738000       0.18168810
    82  C          0.92415000       0.60262000       0.68168810
    83  C          0.07585000       0.10262000       0.31831190
    84  C          0.42415000       0.89738000       0.81831190
    85  C          0.50185000       0.67292000       0.83152190
    86  C         -0.00185000       0.32708000       0.33152190
    87  C          0.00185000       0.82708000       0.66847810
    88  C          0.49815000       0.17292000       0.16847810
    89  C          0.49815000       0.32708000       0.16847810
    90  C          0.00185000       0.67292000       0.66847810
    91  C         -0.00185000       0.17292000       0.33152190
    92  C          0.50185000       0.82708000       0.83152190
    93  C          0.42725000       0.71112000       0.88201180
    94  C          0.07275000       0.28888000       0.38201180
    95  C          0.92725000       0.78888000       0.61798820
    96  C          0.57275000       0.21112000       0.11798820
    97  C          0.57275000       0.28888000       0.11798820
    98  C          0.92725000       0.71112000       0.61798820
    99  C          0.07275000       0.21112000       0.38201180
   100  C          0.42725000       0.78888000       0.88201180
   101  C          0.33065000       0.65192000       0.91157190
   102  C          0.16935000       0.34808000       0.41157190
   103  C          0.83065000       0.84808000       0.58842810
   104  C          0.66935000       0.15192000       0.08842810
   105  C          0.66935000       0.34808000       0.08842810
   106  C          0.83065000       0.65192000       0.58842810
   107  C          0.16935000       0.15192000       0.41157190
   108  C          0.33065000       0.84808000       0.91157190
   109  C          0.32875000       0.58732000       0.87362190
   110  C          0.17125000       0.41268000       0.37362190
   111  C          0.82875000       0.91268000       0.62637810
   112  C          0.67125000       0.08732000       0.12637810
   113  C          0.67125000       0.41268000       0.12637810
   114  C          0.82875000       0.58732000       0.62637810
   115  C          0.17125000       0.08732000       0.37362190
   116  C          0.32875000       0.91268000       0.87362190
   117  C          0.24685000       0.52323000       0.89242000
   118  C          0.25315000       0.47677000       0.39242000
   119  C          0.74685000       0.97677000       0.60758000
   120  C          0.75315000       0.02323000       0.10758000
   121  C          0.75315000       0.47677000       0.10758000
   122  C          0.74685000       0.52323000       0.60758000
   123  C          0.25315000       0.02323000       0.39242000
   124  C          0.24685000       0.97677000       0.89242000
   125  H          0.24520000       0.47980000       0.86750000
   126  H          0.25480000       0.52020000       0.36750000
   127  H          0.74520000       0.02020000       0.63250000
   128  H          0.75480000       0.97980000       0.13250000
   129  H          0.75480000       0.52020000       0.13250000
   130  H          0.74520000       0.47980000       0.63250000
   131  H          0.25480000       0.97980000       0.36750000
   132  H          0.24520000       0.02020000       0.86750000
   133  C          0.16905000       0.52393000       0.94742000
   134  C          0.33095000       0.47607000       0.44742000
   135  C          0.66905000       0.97607000       0.55258000
   136  C          0.83095000       0.02393000       0.05258000
   137  C          0.83095000       0.47607000       0.05258000
   138  C          0.66905000       0.52393000       0.55258000
   139  C          0.33095000       0.02393000       0.44742000
   140  C          0.16905000       0.97607000       0.94742000
   141  H          0.11300000       0.48080000       0.96030000
   142  H          0.38700000       0.51920000       0.46030000
   143  H          0.61300000       0.01920000       0.53970000
   144  H          0.88700000       0.98080000       0.03970000
   145  H          0.88700000       0.51920000       0.03970000
   146  H          0.61300000       0.48080000       0.53970000
   147  H          0.38700000       0.98080000       0.46030000
   148  H          0.11300000       0.01920000       0.96030000
   149  C          0.17165000       0.58753000       0.98432000
   150  C          0.32835000       0.41247000       0.48432000
   151  C          0.67165000       0.91247000       0.51568000
   152  C          0.82835000       0.08753000       0.01568000
   153  C          0.82835000       0.41247000       0.01568000
   154  C          0.67165000       0.58753000       0.51568000
   155  C          0.32835000       0.08753000       0.48432000
   156  C          0.17165000       0.91247000       0.98432000
   157  H          0.11760000       0.58670000       0.02220000
   158  H          0.38240000       0.41330000       0.52220000
   159  H          0.61760000       0.91330000       0.47780000
   160  H          0.88240000       0.08670000       0.97780000
   161  H          0.88240000       0.41330000       0.97780000
   162  H          0.61760000       0.58670000       0.47780000
   163  H          0.38240000       0.08670000       0.52220000
   164  H          0.11760000       0.91330000       0.02220000
   165  C          0.24985000       0.65032000       0.96723190
   166  C          0.25015000       0.34968000       0.46723190
   167  C          0.74985000       0.84968000       0.53276810
   168  C          0.75015000       0.15032000       0.03276810
   169  C          0.75015000       0.34968000       0.03276810
   170  C          0.74985000       0.65032000       0.53276810
   171  C          0.25015000       0.15032000       0.46723190
   172  C          0.24985000       0.84968000       0.96723190
   173  H          0.24970000       0.69310000       0.99290000
   174  H          0.25030000       0.30690000       0.49290000
   175  H          0.74970000       0.80690000       0.50710000
   176  H          0.75030000       0.19310000       0.00710000
   177  H          0.75030000       0.30690000       0.00710000
   178  H          0.74970000       0.69310000       0.50710000
   179  H          0.25030000       0.19310000       0.49290000
   180  H          0.24970000       0.80690000       0.99290000
   181  C          0.31805000       0.52722000       0.72185190
   182  C          0.18195000       0.47278000       0.22185190
   183  C          0.81805000       0.97278000       0.77814810
   184  C          0.68195000       0.02722000       0.27814810
   185  C          0.68195000       0.47278000       0.27814810
   186  C          0.81805000       0.52722000       0.77814810
   187  C          0.18195000       0.02722000       0.22185190
   188  C          0.31805000       0.97278000       0.72185190
   189  C          0.31545000       0.55212000       0.65966190
   190  C          0.18455000       0.44788000       0.15966190
   191  C          0.81545000       0.94788000       0.84033810
   192  C          0.68455000       0.05212000       0.34033810
   193  C          0.68455000       0.44788000       0.34033810
   194  C          0.81545000       0.55212000       0.84033810
   195  C          0.18455000       0.05212000       0.15966190
   196  C          0.31545000       0.94788000       0.65966190
   197  C          0.22895000       0.51292000       0.61712000
   198  C          0.27105000       0.48708000       0.11712000
   199  C          0.72895000       0.98708000       0.88288000
   200  C          0.77105000       0.01292000       0.38288000
   201  C          0.77105000       0.48708000       0.38288000
   202  C          0.72895000       0.51292000       0.88288000
   203  C          0.27105000       0.01292000       0.11712000
   204  C          0.22895000       0.98708000       0.61712000
   205  H          0.22760000       0.52860000       0.57580000
   206  H          0.27240000       0.47140000       0.07580000
   207  H          0.72760000       0.97140000       0.92420000
   208  H          0.77240000       0.02860000       0.42420000
   209  H          0.77240000       0.47140000       0.42420000
   210  H          0.72760000       0.52860000       0.92420000
   211  H          0.27240000       0.02860000       0.07580000
   212  H          0.22760000       0.97140000       0.57580000
   213  C          0.14315000       0.44972000       0.63522000
   214  C          0.35685000       0.55028000       0.13522000
   215  C          0.64315000       0.05028000       0.86478000
   216  C          0.85685000       0.94972000       0.36478000
   217  C          0.85685000       0.55028000       0.36478000
   218  C          0.64315000       0.44972000       0.86478000
   219  C          0.35685000       0.94972000       0.13522000
   220  C          0.14315000       0.05028000       0.63522000
   221  H          0.08300000       0.42290000       0.60600000
   222  H          0.41700000       0.57710000       0.10600000
   223  H          0.58300000       0.07710000       0.89400000
   224  H          0.91700000       0.92290000       0.39400000
   225  H          0.91700000       0.57710000       0.39400000
   226  H          0.58300000       0.42290000       0.89400000
   227  H          0.41700000       0.92290000       0.10600000
   228  H          0.08300000       0.07710000       0.60600000
   229  C          0.14495000       0.42602000       0.69522000
   230  C          0.35505000       0.57398000       0.19522000
   231  C          0.64495000       0.07398000       0.80478000
   232  C          0.85505000       0.92602000       0.30478000
   233  C          0.85505000       0.57398000       0.30478000
   234  C          0.64495000       0.42602000       0.80478000
   235  C          0.35505000       0.92602000       0.19522000
   236  C          0.14495000       0.07398000       0.69522000
   237  H          0.08530000       0.38350000       0.70680000
   238  H          0.41470000       0.61650000       0.20680000
   239  H          0.58530000       0.11650000       0.79320000
   240  H          0.91470000       0.88350000       0.29320000
   241  H          0.91470000       0.61650000       0.29320000
   242  H          0.58530000       0.38350000       0.79320000
   243  H          0.41470000       0.88350000       0.20680000
   244  H          0.08530000       0.11650000       0.70680000
   245  C          0.23365000       0.46422000       0.73852000
   246  C          0.26635000       0.53578000       0.23852000
   247  C          0.73365000       0.03578000       0.76148000
   248  C          0.76635000       0.96422000       0.26148000
   249  C          0.76635000       0.53578000       0.26148000
   250  C          0.73365000       0.46422000       0.76148000
   251  C          0.26635000       0.96422000       0.23852000
   252  C          0.23365000       0.03578000       0.73852000
   253  H          0.23620000       0.44700000       0.77940000
   254  H          0.26380000       0.55300000       0.27940000
   255  H          0.73620000       0.05300000       0.72060000
   256  H          0.76380000       0.94700000       0.22060000
   257  H          0.76380000       0.55300000       0.22060000
   258  H          0.73620000       0.44700000       0.72060000
   259  H          0.26380000       0.94700000       0.27940000
   260  H          0.23620000       0.05300000       0.77940000
   261  C          0.31245000       0.71002000       0.56591180
   262  C          0.18755000       0.28998000       0.06591180
   263  C          0.81245000       0.78998000       0.93408820
   264  C          0.68755000       0.21002000       0.43408820
   265  C          0.68755000       0.28998000       0.43408820
   266  C          0.81245000       0.71002000       0.93408820
   267  C          0.18755000       0.21002000       0.06591180
   268  C          0.31245000       0.78998000       0.56591180
   269  C          0.22345000       0.67172000       0.52202000
   270  C          0.27655000       0.32828000       0.02202000
   271  C          0.72345000       0.82828000       0.97798000
   272  C          0.77655000       0.17172000       0.47798000
   273  C          0.77655000       0.32828000       0.47798000
   274  C          0.72345000       0.67172000       0.97798000
   275  C          0.27655000       0.17172000       0.02202000
   276  C          0.22345000       0.82828000       0.52202000
   277  H          0.22360000       0.61850000       0.52130000
   278  H          0.27640000       0.38150000       0.02130000
   279  H          0.72360000       0.88150000       0.97870000
   280  H          0.77640000       0.11850000       0.47870000
   281  H          0.77640000       0.38150000       0.47870000
   282  H          0.72360000       0.61850000       0.97870000
   283  H          0.27640000       0.11850000       0.02130000
   284  H          0.22360000       0.88150000       0.52130000
   285  C          0.13545000       0.71113000       0.47980190
   286  C          0.36455000       0.28887000       0.97980190
   287  C          0.63545000       0.78887000       0.02019810
   288  C          0.86455000       0.21113000       0.52019810
   289  C          0.86455000       0.28887000       0.52019810
   290  C          0.63545000       0.71113000       0.02019810
   291  C          0.36455000       0.21113000       0.97980190
   292  C          0.13545000       0.78887000       0.47980190
   293  H          0.07430000       0.68480000       0.45050000
   294  H          0.42570000       0.31520000       0.95050000
   295  H          0.57430000       0.81520000       0.04950000
   296  H          0.92570000       0.18480000       0.54950000
   297  H          0.92570000       0.31520000       0.54950000
   298  H          0.57430000       0.68480000       0.04950000
   299  H          0.42570000       0.18480000       0.95050000
   300  H          0.07430000       0.81520000       0.45050000
