data_IXUXUW
_symmetry_space_group_name_H-M    'P1'
_symmetry_Int_Tables_number       1
loop_
_symmetry_equiv_pos_site_id
_symmetry_equiv_pos_as_xyz
1 x,y,z
_cell_length_a                   20.4802
_cell_length_b                   5.7771
_cell_length_c                   14.6431
_cell_angle_alpha                90.0
_cell_angle_beta                 100.991
_cell_angle_gamma                90.0
loop_
_atom_site_label
_atom_site_type_symbol
_atom_site_fract_x
_atom_site_fract_y
_atom_site_fract_z
     1  I          0.18314200       0.01669600       0.59737200
     2  I          0.81685800       0.51669600       0.90262800
     3  I          0.81685800      -0.01669600       0.40262800
     4  I          0.18314200       0.48330400       0.09737200
     5  O          0.34801160       0.70976000       0.30192000
     6  O          0.65198840       0.20976000       0.19808000
     7  O          0.65198840       0.29024000       0.69808000
     8  O          0.34801160       0.79024000       0.80192000
     9  C          0.31070190       0.78297000       0.36393000
    10  C          0.68929810       0.28297000       0.13607000
    11  C          0.68929810       0.21703000       0.63607000
    12  C          0.31070190       0.71703000       0.86393000
    13  C          0.23701190       0.91168000       0.49553000
    14  C          0.76298810       0.41168000       0.00447000
    15  C          0.76298810       0.08832000       0.50447000
    16  C          0.23701190       0.58832000      -0.00447000
    17  C          0.30662000       0.64018000       0.43793000
    18  C          0.69338000       0.14018000       0.06207000
    19  C          0.69338000       0.35982000       0.56207000
    20  C          0.30662000       0.85982000       0.93793000
    21  C          0.27722000      -0.01102000       0.35563000
    22  C          0.72278000       0.48898000       0.14437000
    23  C          0.72278000       0.01102000       0.64437000
    24  C          0.27722000       0.51102000       0.85563000
    25  C          0.24052000       0.05598000       0.42183000
    26  C          0.75948000       0.55598000       0.07817000
    27  C          0.75948000       0.94402000       0.57817000
    28  C          0.24052000       0.44402000       0.92183000
    29  C          0.26992000       0.70448000       0.50323000
    30  C          0.73008000       0.20448000      -0.00323000
    31  C          0.73008000       0.29552000       0.49677000
    32  C          0.26992000       0.79552000       0.00323000
    33  H          0.33220000       0.49460000       0.44430000
    34  H          0.66780000      -0.00540000       0.05570000
    35  H          0.66780000       0.50540000       0.55570000
    36  H          0.33220000       0.00540000       0.94430000
    37  H          0.27991900       0.08770000       0.31130000
    38  H          0.72008100       0.58770000       0.18870000
    39  H          0.72008100       0.91230000       0.68870000
    40  H          0.27991900       0.41230000       0.81130000
    41  H          0.21820000       0.19080000       0.41330000
    42  H          0.78180000       0.69080000       0.08670000
    43  H          0.78180000       0.80920000       0.58670000
    44  H          0.21820000       0.30920000       0.91330000
    45  H          0.27020000       0.61390000       0.55430000
    46  H          0.72980000       0.11390000       0.94570000
    47  H          0.72980000       0.38610000       0.44570000
    48  H          0.27020000       0.88610000       0.05430000
    49  H          0.35920000       0.82490000       0.27330000
    50  H          0.64080000       0.32490000       0.22670000
    51  H          0.64080000       0.17510000       0.72670000
    52  H          0.35920000       0.67510000       0.77330000
    53  N          0.10774190       0.13037000       0.75342000
    54  N          0.89225810       0.63037000       0.74658000
    55  N          0.89225810       0.86963000       0.24658000
    56  N          0.10774190       0.36963000       0.25342000
    57  C          0.05562000       0.10358000       0.91593000
    58  C          0.94438000       0.60358000       0.58407000
    59  C          0.94438000       0.89642000       0.08407000
    60  C          0.05562000       0.39642000       0.41593000
    61  C          0.04203000       0.28619000       0.85583000
    62  C          0.95797000       0.78619000       0.64417000
    63  C          0.95797000       0.71381000       0.14417000
    64  C          0.04203000       0.21381000       0.35583000
    65  C          0.09552000       0.93231000       0.89163000
    66  C          0.90448000       0.43231000       0.60837000
    67  C          0.90448000       0.06769000       0.10837000
    68  C          0.09552000       0.56769000       0.39163000
    69  C          0.12063000       0.95389000       0.81104000
    70  C          0.87937000       0.45389000       0.68896000
    71  C          0.87937000       0.04611000       0.18896000
    72  C          0.12063000       0.54611000       0.31104000
    73  C          0.06953000       0.29329000       0.77713000
    74  C          0.93047000       0.79329000       0.72287000
    75  C          0.93047000       0.70671000       0.22287000
    76  C          0.06953000       0.20671000       0.27713000
    77  C          0.02753000       0.08691300       0.00374000
    78  C          0.97247000       0.58691300       0.49626000
    79  C          0.97247000       0.91308700      -0.00374000
    80  C          0.02753000       0.41308700       0.50374000
    81  H          0.01820000       0.40990000       0.86430000
    82  H          0.98180000       0.90990000       0.63570000
    83  H          0.98180000       0.59010000       0.13570000
    84  H          0.01820000       0.09010000       0.36430000
    85  H          0.11120000       0.80210000       0.93230000
    86  H          0.88880000       0.30210000       0.56770000
    87  H          0.88880000       0.19790000       0.06770000
    88  H          0.11120000       0.69790000       0.43230000
    89  H          0.06330000       0.01810000       0.05250000
    90  H          0.93670000       0.51810000       0.44750000
    91  H          0.93670000      -0.01810000       0.94750000
    92  H          0.06330000       0.48190000       0.55250000
    93  H          0.01130000       0.24414000       0.01640000
    94  H          0.98870000       0.74414000       0.48360000
    95  H          0.98870000       0.75586000       0.98360000
    96  H          0.01130000       0.25586000       0.51640000
    97  H          0.06320000       0.42790000       0.73330000
    98  H          0.93680000       0.92790000       0.76670000
    99  H          0.93680000       0.57210000       0.26670000
   100  H          0.06320000       0.07210000       0.23330000
   101  H          0.14220000       0.82910000       0.79930000
   102  H          0.85780000       0.32910000       0.70070000
   103  H          0.85780000       0.17090000       0.20070000
   104  H          0.14220000       0.67090000       0.29930000
   105  H          0.93670000      -0.01810000       0.94850000
   106  H          0.06330000       0.48190000       0.55150000
   107  H          0.06330000       0.01810000       0.05150000
   108  H          0.93670000       0.51810000       0.44850000
   109  H          0.98870000       0.75586000       0.98440000
   110  H          0.01130000       0.25586000       0.51560000
   111  H          0.01130000       0.24414000       0.01560000
   112  H          0.98870000       0.74414000       0.48440000
   113  N          0.39649190       0.04126000       0.19593000
   114  N          0.60350810       0.54126000       0.30407000
   115  N          0.60350810       0.95874000       0.80407000
   116  N          0.39649190       0.45874000       0.69593000
   117  C          0.45382000       0.97281000       0.17473000
   118  C          0.54618000       0.47281000       0.32527000
   119  C          0.54618000       0.02719000       0.82527000
   120  C          0.45382000       0.52719000       0.67473000
   121  C          0.37373000       0.24109000       0.15994000
   122  C          0.62627000       0.74109000       0.34006000
   123  C          0.62627000       0.75891000       0.84006000
   124  C          0.37373000       0.25891000       0.65994000
   125  C          0.46553000       0.29639000       0.08413000
   126  C          0.53447000       0.79639000       0.41587000
   127  C          0.53447000       0.70361000       0.91587000
   128  C          0.46553000       0.20361000       0.58413000
   129  C          0.48833000       0.09171000       0.12104000
   130  C          0.51167000       0.59171000       0.37896000
   131  C          0.51167000       0.90829000       0.87896000
   132  C          0.48833000       0.40829000       0.62104000
   133  C          0.40593000       0.36971000       0.10294000
   134  C          0.59407000       0.86971000       0.39706000
   135  C          0.59407000       0.63029000       0.89706000
   136  C          0.40593000       0.13029000       0.60294000
   137  C          0.51494000       0.43901300       0.03355000
   138  C          0.48506000       0.93901300       0.46645000
   139  C          0.48506000       0.56098700       0.96645000
   140  C          0.51494000       0.06098700       0.53355000
   141  H          0.54210000       0.53920000       0.07860000
   142  H          0.45790000       0.03920000       0.42140000
   143  H          0.45790000       0.46080000       0.92140000
   144  H          0.54210000       0.96080000       0.57860000
   145  H          0.54440000       0.33180000       0.01030000
   146  H          0.45560000       0.83180000       0.48970000
   147  H          0.45560000       0.66820000       0.98970000
   148  H          0.54440000       0.16820000       0.51030000
   149  H          0.47011600       0.84430000       0.19720000
   150  H          0.52988400       0.34430000       0.30280000
   151  H          0.52988400       0.15570000       0.80280000
   152  H          0.47011600       0.65570000       0.69720000
   153  H          0.38530000       0.48780000       0.09240000
   154  H          0.61470000      -0.01220000       0.40760000
   155  H          0.61470000       0.51220000       0.90760000
   156  H          0.38530000       0.01220000       0.59240000
   157  H          0.33620000       0.29380000       0.17730000
   158  H          0.66380000       0.79380000       0.32270000
   159  H          0.66380000       0.70620000       0.82270000
   160  H          0.33620000       0.20620000       0.67730000
   161  H          0.52530000       0.04680000       0.11640000
   162  H          0.47470000       0.54680000       0.38360000
   163  H          0.47470000       0.95320000       0.88360000
   164  H          0.52530000       0.45320000       0.61640000
   165  H          0.61530000       0.51380000       0.90760000
   166  H          0.38470000       0.01380000       0.59240000
   167  H          0.38470000       0.48620000       0.09240000
   168  H          0.61530000      -0.01380000       0.40760000
   169  H          0.47530000       0.95480000       0.88360000
   170  H          0.52470000       0.45480000       0.61640000
   171  H          0.52470000       0.04520000       0.11640000
   172  H          0.47530000       0.54520000       0.38360000
