data_IXUYIL
_symmetry_space_group_name_H-M    'P1'
_symmetry_Int_Tables_number       1
loop_
_symmetry_equiv_pos_site_id
_symmetry_equiv_pos_as_xyz
1 x,y,z
_cell_length_a                   4.22709
_cell_length_b                   9.424019
_cell_length_c                   14.0483
_cell_angle_alpha                75.413
_cell_angle_beta                 88.753
_cell_angle_gamma                79.393
loop_
_atom_site_label
_atom_site_type_symbol
_atom_site_fract_x
_atom_site_fract_y
_atom_site_fract_z
     1  I          0.18067130       0.24794600       0.08168400
     2  I          0.81932870       0.75205400       0.91831600
     3  O          0.67611300       0.30805000       0.65613000
     4  O          0.32388700       0.69195000       0.34387000
     5  H          0.64050000       0.24210000       0.63150000
     6  H          0.35950000       0.75790000       0.36850000
     7  C          0.34371600       0.26197000       0.93945000
     8  C          0.65628400       0.73803000       0.06055000
     9  C          0.60131700       0.39467000       0.79984000
    10  C          0.39868300       0.60533000       0.20016000
    11  H          0.70510000       0.47260000       0.76990000
    12  H          0.29490000       0.52740000       0.23010000
    13  C          0.41681800       0.16948000       0.79495000
    14  C          0.58318200       0.83052000       0.20505000
    15  H          0.39530000       0.09790000       0.76160000
    16  H          0.60470000       0.90210000       0.23840000
    17  C          0.30501700       0.15428000       0.89035000
    18  C          0.69498300       0.84572000       0.10965000
    19  H          0.20700000       0.07430000       0.92060000
    20  H          0.79300000       0.92570000       0.07940000
    21  C          0.48681700       0.38177000       0.89475000
    22  C          0.51318300       0.61823000       0.10525000
    23  H          0.50660000       0.45350000       0.92800000
    24  H          0.49340000       0.54650000       0.07200000
    25  C          0.55641700       0.28647000       0.74974000
    26  C          0.44358300       0.71353000       0.25026000
    27  N          0.55481300       0.09426000       0.55934000
    28  N          0.44518700       0.90574000       0.44066000
    29  C          0.71181600       0.95253000       0.57714000
    30  C          0.28818400       0.04747000       0.42286000
    31  C          0.34161500       0.14337000       0.48294000
    32  C          0.65838500       0.85663000       0.51706000
    33  C          0.93881600       0.89602000       0.65765000
    34  C          0.06118400       0.10398000       0.34235000
    35  H         -0.02190000       0.95730000       0.69690000
    36  H          0.02190000       0.04270000       0.30310000
    37  C          0.09811800       0.75112000       0.67665000
    38  C          0.90188200       0.24888000       0.32335000
    39  H          0.24380000       0.71390000       0.72960000
    40  H          0.75620000       0.28610000       0.27040000
    41  C          0.16961600       0.29387000       0.46095000
    42  C          0.83038400       0.70613000       0.53905000
    43  H          0.20360000       0.35740000       0.49910000
    44  H          0.79640000       0.64260000       0.50090000
    45  C          0.95688300       0.34298000       0.38385000
    46  C          0.04311700       0.65702000       0.61615000
    47  H          0.84390000       0.44050000       0.37000000
    48  H          0.15610000       0.55950000       0.63000000
