data_IYETUD
_symmetry_space_group_name_H-M    'P1'
_symmetry_Int_Tables_number       1
loop_
_symmetry_equiv_pos_site_id
_symmetry_equiv_pos_as_xyz
1 x,y,z
_cell_length_a                   10.18079
_cell_length_b                   11.81221
_cell_length_c                   19.254915
_cell_angle_alpha                87.9753
_cell_angle_beta                 83.7373
_cell_angle_gamma                85.0413
loop_
_atom_site_label
_atom_site_type_symbol
_atom_site_fract_x
_atom_site_fract_y
_atom_site_fract_z
     1  I          0.84497300       0.28226200       0.74511200
     2  I          0.15502700       0.71773800       0.25488800
     3  I          0.03392300       0.30872200       0.84663200
     4  I          0.96607700       0.69127800       0.15336800
     5  I          0.65104300       0.26168300       0.64548200
     6  I          0.34895700       0.73831700       0.35451800
     7  N          0.50313000       0.22303000       0.14236170
     8  N          0.49687000       0.77697000       0.85763830
     9  N          0.70093000       0.27073000       0.27811180
    10  N          0.29907000       0.72927000       0.72188820
    11  N          0.40773000       0.36803000       0.20462180
    12  N          0.59227000       0.63197000       0.79537820
    13  C          0.60654000       0.15783000       0.09902000
    14  C          0.39346000       0.84217000       0.90098000
    15  C          0.83704000       0.09033000       0.25702000
    16  C          0.16296000       0.90967000       0.74298000
    17  C          0.71954000       0.14833000       0.28662000
    18  C          0.28046000       0.85167000       0.71338000
    19  C          0.38434000       0.26303000       0.11492000
    20  C          0.61566000       0.73697000       0.88508000
    21  C          0.53264000       0.97367000       0.16112000
    22  C          0.46736000       0.02633000       0.83888000
    23  H          0.53040000       0.01180000       0.20680000
    24  H          0.46960000       0.98820000       0.79320000
    25  C          0.51764000       0.29283000       0.19552000
    26  C          0.48236000       0.70717000       0.80448000
    27  C          0.56314000       0.44243000       0.26472000
    28  C          0.43686000       0.55757000       0.73528000
    29  C          0.61984000       0.03813000       0.10712000
    30  C          0.38016000       0.96187000       0.89288000
    31  C          0.33184000       0.23284000       0.05562000
    32  C          0.66816000       0.76716000       0.94438000
    33  H          0.37490000       0.17460000       0.02630000
    34  H          0.62510000       0.82540000       0.97370000
    35  C          0.61904000       0.09083000       0.32502000
    36  C          0.38096000       0.90917000       0.67498000
    37  C          0.74004000       0.35413000       0.32972000
    38  C          0.25996000       0.64587000       0.67028000
    39  C          0.60784000       0.32263000       0.24062000
    40  C          0.39216000       0.67737000       0.75938000
    41  C          0.61385000       0.53493000       0.21332000
    42  C          0.38615000       0.46507000       0.78668000
    43  H          0.58030000       0.52660000       0.16810000
    44  H          0.41970000       0.47340000       0.83190000
    45  H          0.71090000       0.52730000       0.20730000
    46  H          0.28910000       0.47270000       0.79270000
    47  H          0.58240000       0.60990000       0.23170000
    48  H          0.41760000       0.39010000       0.76830000
    49  C          0.21254000       0.29134000       0.04052000
    50  C          0.78746000       0.70866000       0.95948000
    51  C          0.77544000       0.15544000       0.00222000
    52  C          0.22456000       0.84456000      -0.00222000
    53  H          0.82720000       0.19350000       0.96610000
    54  H          0.17280000       0.80650000       0.03390000
    55  C          0.32244000       0.35233000       0.15632000
    56  C          0.67756000       0.64767000       0.84368000
    57  C          0.14924000       0.37693000       0.08452000
    58  C          0.85076000       0.62307000       0.91548000
    59  H          0.06680000       0.41340000       0.07380000
    60  H          0.93320000       0.58660000       0.92620000
    61  C          0.68154000       0.21753000       0.04682000
    62  C          0.31846000       0.78247000       0.95318000
    63  C          0.49044000       0.14884000       0.36082000
    64  C          0.50956000       0.85116000       0.63918000
    65  H          0.49680000       0.23290000       0.35730000
    66  H          0.50320000       0.76710000       0.64270000
    67  C          0.41114000       0.44464000       0.26312000
    68  C          0.58886000       0.55536000       0.73688000
    69  H          0.36650000       0.41430000       0.30730000
    70  H          0.63350000       0.58570000       0.69270000
    71  H          0.37100000       0.52190000       0.25300000
    72  H          0.62900000       0.47810000       0.74700000
    73  C          0.94954000       0.15004000       0.21702000
    74  C          0.05046000       0.84996000       0.78298000
    75  H          0.91870000       0.23210000       0.21090000
    76  H          0.08130000       0.76790000       0.78910000
    77  C          0.61794000       0.44234000       0.33522000
    78  C          0.38206000       0.55766000       0.66478000
    79  H          0.55080000       0.42010000       0.37320000
    80  H          0.44920000       0.57990000       0.62680000
    81  H          0.64420000       0.51850000       0.34460000
    82  H          0.35580000       0.48150000       0.65540000
    83  C          0.75354000       0.91456000       0.30202000
    84  C          0.24646000       0.08544000       0.69798000
    85  H          0.76430000       0.83400000       0.30660000
    86  H          0.23570000       0.16600000       0.69340000
    87  C          0.66524000       0.34574000       0.03692000
    88  C          0.33476000       0.65426000       0.96308000
    89  H          0.59160000       0.37520000       0.07200000
    90  H          0.40840000       0.62480000       0.92800000
    91  C          0.20274000       0.40934000       0.14262000
    92  C          0.79726000       0.59066000       0.85738000
    93  H          0.15990000       0.46770000       0.17170000
    94  H          0.84010000       0.53230000       0.82830000
    95  C          0.85214000       0.97247000       0.26552000
    96  C          0.14786000       0.02753000       0.73448000
    97  H          0.93120000       0.93170000       0.24600000
    98  H          0.06880000       0.06830000       0.75400000
    99  C          0.39004000       0.97476000       0.14303000
   100  C          0.60996000       0.02524000       0.85697000
   101  H          0.39020000       0.94640000       0.09580000
   102  H          0.60980000       0.05360000       0.90420000
   103  H          0.34820000       0.05270000       0.14510000
   104  H          0.65180000       0.94730000       0.85490000
   105  H          0.34030000       0.92600000       0.17660000
   106  H          0.65970000       0.07400000       0.82340000
   107  C          0.63894000       0.97286000       0.33192000
   108  C          0.36106000       0.02714000       0.66808000
   109  H          0.57250000       0.93190000       0.35760000
   110  H          0.42750000       0.06810000       0.64240000
   111  C          0.71784000       0.98136000       0.06162000
   112  C          0.28216000       0.01864000       0.93838000
   113  H          0.73270000       0.90110000       0.06620000
   114  H          0.26730000       0.09890000       0.93380000
   115  C          0.58534000       0.84916000       0.17122000
   116  C          0.41466000       0.15084000       0.82878000
   117  H          0.67960000       0.84550000       0.17810000
   118  H          0.32040000       0.15450000       0.82190000
   119  H          0.57420000       0.80670000       0.12980000
   120  H          0.42580000       0.19330000       0.87020000
   121  H          0.53580000       0.81580000       0.21230000
   122  H          0.46420000       0.18420000       0.78770000
   123  C          0.79374000       0.03844000       0.01012000
   124  C          0.20626000       0.96156000       0.98988000
   125  H          0.85910000      -0.00320000       0.97980000
   126  H          0.14090000       0.00320000       0.02020000
   127  C          0.79124000       0.39804000       0.05193000
   128  C          0.20876000       0.60196000       0.94807000
   129  H          0.86270000       0.37810000       0.01490000
   130  H          0.13730000       0.62190000       0.98510000
   131  H          0.81750000       0.36850000       0.09700000
   132  H          0.18250000       0.63150000       0.90300000
   133  H          0.77430000       0.48080000       0.05340000
   134  H          0.22570000       0.51920000       0.94660000
   135  C          0.86714000       0.40754000       0.29923000
   136  C          0.13286000       0.59246000       0.70077000
   137  H          0.85970000       0.43120000       0.25040000
   138  H          0.14030000       0.56880000       0.74960000
   139  H          0.94350000       0.35150000       0.30150000
   140  H          0.05650000       0.64850000       0.69850000
   141  H          0.87920000       0.47390000       0.32630000
   142  H          0.12080000       0.52610000       0.67370000
   143  C          0.76225000       0.29594000       0.39962000
   144  C          0.23775000       0.70406000       0.60038000
   145  H          0.83500000       0.23610000       0.39290000
   146  H          0.16500000       0.76390000       0.60710000
   147  H          0.68110000       0.26220000       0.41920000
   148  H          0.31890000       0.73780000       0.58080000
   149  H          0.78470000       0.35190000       0.43180000
   150  H          0.21530000       0.64810000       0.56820000
   151  C          0.36944000       0.12204000       0.32563000
   152  C          0.63056000       0.87796000       0.67437000
   153  H          0.36180000       0.03980000       0.32800000
   154  H          0.63820000       0.96020000       0.67200000
   155  H          0.37980000       0.14800000       0.27650000
   156  H          0.62020000       0.85200000       0.72350000
   157  H          0.28930000       0.16100000       0.34960000
   158  H          0.71070000       0.83900000       0.65040000
   159  C          0.62585000       0.38044000       0.96408000
   160  C          0.37415000       0.61956000       0.03592000
   161  H          0.54510000       0.34500000       0.95650000
   162  H          0.45490000       0.65500000       0.04350000
   163  H          0.69770000       0.35500000       0.92860000
   164  H          0.30230000       0.64500000       0.07140000
   165  H          0.60940000       0.46330000       0.96070000
   166  H          0.39060000       0.53670000       0.03930000
   167  C          0.07014000       0.14224000       0.25833000
   168  C          0.92986000       0.85776000       0.74167000
   169  H          0.10410000       0.06250000       0.26320000
   170  H          0.89590000       0.93750000       0.73680000
   171  H          0.04430000       0.17360000       0.30470000
   172  H          0.95570000       0.82640000       0.69530000
   173  H          0.13930000       0.18570000       0.23340000
   174  H          0.86070000       0.81430000       0.76660000
   175  C          0.98835000       0.10094000       0.14482000
   176  C          0.01165000       0.89906000       0.85518000
   177  H          0.91020000       0.10530000       0.11890000
   178  H          0.08980000       0.89470000       0.88110000
   179  H          0.02290000       0.02140000       0.14970000
   180  H          0.97710000       0.97860000       0.85030000
   181  H          0.05670000       0.14460000       0.11940000
   182  H          0.94330000       0.85540000       0.88060000
   183  C          0.46885000       0.11445000       0.43822000
   184  C          0.53115000       0.88555000       0.56178000
   185  H          0.54530000       0.13200000       0.46140000
   186  H          0.45470000       0.86800000       0.53860000
   187  H          0.45870000       0.03260000       0.44280000
   188  H          0.54130000       0.96740000       0.55720000
   189  H          0.38860000       0.15650000       0.46000000
   190  H          0.61140000       0.84350000       0.54000000
   191  C          0.12925000       0.95494000       0.48423000
   192  C          0.87075000       0.04506000       0.51577000
   193  H          0.21820000       0.92440000       0.47330000
   194  H          0.78180000       0.07560000       0.52670000
   195  C          0.95625000       0.03544000       0.56703000
   196  C          0.04375000       0.96456000       0.43297000
   197  H          0.92690000       0.06000000       0.61300000
   198  H          0.07310000       0.94000000       0.38700000
   199  C          0.08575000      -0.01086000       0.55073000
   200  C          0.91425000       0.01086000       0.44927000
   201  H          0.14460000       0.98110000       0.58590000
   202  H          0.85540000       0.01890000       0.41410000
   203  C          0.24467000       0.44554000       0.45482000
   204  C          0.75533000       0.55446000       0.54518000
   205  H          0.27440000       0.50150000       0.42150000
   206  H          0.72560000       0.49850000       0.57850000
   207  C          0.12416000       0.40055000       0.45053000
   208  C          0.87584000       0.59945000       0.54947000
   209  H          0.07160000       0.42570000       0.41420000
   210  H          0.92840000       0.57430000       0.58580000
   211  C          0.08065000       0.31865000       0.49923000
   212  C          0.91935000       0.68135000       0.50077000
   213  H         -0.00170000       0.28780000       0.49620000
   214  H          0.00170000       0.71220000       0.50380000
   215  C          0.15755000       0.28174000       0.55232000
   216  C          0.84245000       0.71826000       0.44768000
   217  H          0.12770000       0.22570000       0.58550000
   218  H          0.87230000       0.77430000       0.41450000
   219  C          0.27794000       0.32674000       0.55662000
   220  C          0.72206000       0.67326000       0.44338000
   221  H          0.33050000       0.30150000       0.59290000
   222  H          0.66950000       0.69850000       0.40710000
   223  C          0.32155000       0.40864000       0.50793000
   224  C          0.67845000       0.59136000       0.49207000
   225  H          0.40380000       0.43940000       0.51090000
   226  H          0.59620000       0.56060000       0.48910000
