data_IZAPEF
_symmetry_space_group_name_H-M    'P1'
_symmetry_Int_Tables_number       1
loop_
_symmetry_equiv_pos_site_id
_symmetry_equiv_pos_as_xyz
1 x,y,z
_cell_length_a                   8.276811
_cell_length_b                   13.380118
_cell_length_c                   23.5483
_cell_angle_alpha                90.0
_cell_angle_beta                 94.1032
_cell_angle_gamma                90.0
loop_
_atom_site_label
_atom_site_type_symbol
_atom_site_fract_x
_atom_site_fract_y
_atom_site_fract_z
     1  C          0.54573000       0.18672000       0.14660120
     2  C          0.95427000       0.68672000       0.35339880
     3  C          0.45427000       0.81328000       0.85339880
     4  C          0.04573000       0.31328000       0.64660120
     5  H          0.55980000       0.26010000       0.14510000
     6  H          0.94020000       0.76010000       0.35490000
     7  H          0.44020000       0.73990000       0.85490000
     8  H          0.05980000       0.23990000       0.64510000
     9  H          0.65300000       0.15750000       0.15800000
    10  H          0.84700000       0.65750000       0.34200000
    11  H          0.34700000       0.84250000       0.84200000
    12  H          0.15300000       0.34250000       0.65800000
    13  C          0.49494000       0.15032000       0.08655120
    14  C          0.00506000       0.65032000       0.41344880
    15  C          0.50506000       0.84968000       0.91344880
    16  C         -0.00506000       0.34968000       0.58655120
    17  H          0.50420000       0.07660000       0.08490000
    18  H         -0.00420000       0.57660000       0.41510000
    19  H          0.49580000       0.92340000       0.91510000
    20  H          0.00420000       0.42340000       0.58490000
    21  H          0.38040000       0.16850000       0.07660000
    22  H          0.11960000       0.66850000       0.42340000
    23  H          0.61960000       0.83150000       0.92340000
    24  H          0.88040000       0.33150000       0.57660000
    25  C          0.60184000       0.19732000       0.04419120
    26  C          0.89816000       0.69732000       0.45580880
    27  C          0.39816000       0.80268000       0.95580880
    28  C          0.10184000       0.30268000       0.54419120
    29  H          0.71350000       0.17140000       0.05110000
    30  H          0.78650000       0.67140000       0.44890000
    31  H          0.28650000       0.82860000       0.94890000
    32  H          0.21350000       0.32860000       0.55110000
    33  H          0.60510000       0.27050000       0.05010000
    34  H          0.89490000       0.77050000       0.44990000
    35  H          0.39490000       0.72950000       0.94990000
    36  H          0.10510000       0.22950000       0.55010000
    37  C          0.54145000       0.17543000       0.98279860
    38  C          0.95855000       0.67543000       0.51720140
    39  C          0.45855000       0.82457000       0.01720140
    40  C          0.04145000       0.32457000       0.48279860
    41  H          0.53360000       0.10290000       0.97710000
    42  H          0.96640000       0.60290000       0.52290000
    43  H          0.46640000       0.89710000       0.02290000
    44  H          0.03360000       0.39710000       0.47710000
    45  H          0.61740000       0.20340000       0.95700000
    46  H          0.88260000       0.70340000       0.54300000
    47  H          0.38260000       0.79660000       0.04300000
    48  H          0.11740000       0.29660000       0.45700000
    49  H          0.43440000       0.20570000       0.97480000
    50  H          0.06560000       0.70570000       0.52520000
    51  H          0.56560000       0.79430000       0.02520000
    52  H          0.93440000       0.29430000       0.47480000
    53  C          0.53513000       0.17282000       0.24946110
    54  C          0.96487000       0.67282000       0.25053890
    55  C          0.46487000       0.82718000       0.75053890
    56  C          0.03513000       0.32718000       0.74946110
    57  H          0.62420000       0.12330000       0.24940000
    58  H          0.87580000       0.62330000       0.25060000
    59  H          0.37580000       0.87670000       0.75060000
    60  H          0.12420000       0.37670000       0.74940000
    61  H          0.58500000       0.24000000       0.25110000
    62  H          0.91500000       0.74000000       0.24890000
    63  H          0.41500000       0.76000000       0.74890000
    64  H          0.08500000       0.26000000       0.75110000
    65  C          0.44693000       0.15752000       0.30322120
    66  C          0.05307000       0.65752000       0.19677880
    67  C          0.55307000       0.84248000       0.69677880
    68  C          0.94693000       0.34248000       0.80322120
    69  H          0.39130000       0.09200000       0.30170000
    70  H          0.10870000       0.59200000       0.19830000
    71  H          0.60870000       0.90800000       0.69830000
    72  H          0.89130000       0.40800000       0.80170000
    73  H          0.36410000       0.21030000       0.30610000
    74  H          0.13590000       0.71030000       0.19390000
    75  H          0.63590000       0.78970000       0.69390000
    76  H          0.86410000       0.28970000       0.80610000
    77  C          0.56764000       0.16153000       0.35499130
    78  C          0.93236000       0.66153000       0.14500870
    79  C          0.43236000       0.83847000       0.64500870
    80  C          0.06764000       0.33847000       0.85499130
    81  H          0.63030000       0.22440000       0.35410000
    82  H          0.86970000       0.72440000       0.14590000
    83  H          0.36970000       0.77560000       0.64590000
    84  H          0.13030000       0.27560000       0.85410000
    85  H          0.64470000       0.10520000       0.35320000
    86  H          0.85530000       0.60520000       0.14680000
    87  H          0.35530000       0.89480000       0.64680000
    88  H          0.14470000       0.39480000       0.85320000
    89  C          0.48515000       0.15583000       0.41058140
    90  C          0.01485000       0.65583000       0.08941860
    91  C          0.51485000       0.84417000       0.58941860
    92  C         -0.01485000       0.34417000       0.91058140
    93  H          0.41130000       0.21270000       0.41310000
    94  H          0.08870000       0.71270000       0.08690000
    95  H          0.58870000       0.78730000       0.58690000
    96  H          0.91130000       0.28730000       0.91310000
    97  H          0.56720000       0.15770000       0.44270000
    98  H          0.93280000       0.65770000       0.05730000
    99  H          0.43280000       0.84230000       0.55730000
   100  H          0.06720000       0.34230000       0.94270000
   101  H          0.42360000       0.09330000       0.41180000
   102  H          0.07640000       0.59330000       0.08820000
   103  H          0.57640000       0.90670000       0.58820000
   104  H          0.92360000       0.40670000       0.91180000
   105  C          0.35703000       0.06024180       0.18607120
   106  C          0.14297000       0.56024180       0.31392880
   107  C          0.64297000       0.93975820       0.81392880
   108  C          0.85703000       0.43975820       0.68607120
   109  H          0.29790000       0.05660000       0.14810000
   110  H          0.20210000       0.55660000       0.35190000
   111  H          0.70210000       0.94340000       0.85190000
   112  H          0.79790000       0.44340000       0.64810000
   113  H          0.27680000       0.05160000       0.21490000
   114  H          0.22320000       0.55160000       0.28510000
   115  H          0.72320000       0.94840000       0.78510000
   116  H          0.77680000       0.44840000       0.71490000
   117  C          0.47763000       0.97413810       0.19168130
   118  C          0.02237000       0.47413810       0.30831870
   119  C          0.52237000       0.02586190       0.80831870
   120  C          0.97763000       0.52586190       0.69168130
   121  H          0.56580000       0.98560000       0.16610000
   122  H          0.93420000       0.48560000       0.33390000
   123  H          0.43420000       0.01440000       0.83390000
   124  H          0.06580000       0.51440000       0.66610000
   125  H          0.52620000       0.97060000       0.23130000
   126  H          0.97380000       0.47060000       0.26870000
   127  H          0.47380000       0.02940000       0.76870000
   128  H          0.02620000       0.52940000       0.73130000
   129  C          0.39224000       0.87638000       0.17611130
   130  C          0.10776000       0.37638000       0.32388870
   131  C          0.60776000       0.12362000       0.82388870
   132  C          0.89224000       0.62362000       0.67611130
   133  H          0.34090000       0.88130000       0.13690000
   134  H          0.15910000       0.38130000       0.36310000
   135  H          0.65910000       0.11870000       0.86310000
   136  H          0.84090000       0.61870000       0.63690000
   137  H          0.30530000       0.86500000       0.20220000
   138  H          0.19470000       0.36500000       0.29780000
   139  H          0.69470000       0.13500000       0.79780000
   140  H          0.80530000       0.63500000       0.70220000
   141  C          0.50824000       0.78778000       0.17966150
   142  C         -0.00824000       0.28778000       0.32033850
   143  C          0.49176000       0.21222000       0.82033850
   144  C          0.00824000       0.71222000       0.67966150
   145  H          0.59020000       0.79670000       0.15200000
   146  H          0.90980000       0.29670000       0.34800000
   147  H          0.40980000       0.20330000       0.84800000
   148  H          0.09020000       0.70330000       0.65200000
   149  H          0.44760000       0.72610000       0.17110000
   150  H          0.05240000       0.22610000       0.32890000
   151  H          0.55240000       0.27390000       0.82890000
   152  H          0.94760000       0.77390000       0.67110000
   153  H          0.56140000       0.78380000       0.21810000
   154  H          0.93860000       0.28380000       0.28190000
   155  H          0.43860000       0.21620000       0.78190000
   156  H          0.06140000       0.71620000       0.71810000
   157  C          0.29753000       0.24113190       0.19421120
   158  C          0.20247000       0.74113190       0.30578880
   159  C          0.70247000       0.75886810       0.80578880
   160  C          0.79753000       0.25886810       0.69421120
   161  H          0.22420000       0.22030000       0.22350000
   162  H          0.27580000       0.72030000       0.27650000
   163  H          0.77580000       0.77970000       0.77650000
   164  H          0.72420000       0.27970000       0.72350000
   165  H          0.34740000       0.30520000       0.20710000
   166  H          0.15260000       0.80520000       0.29290000
   167  H          0.65260000       0.69480000       0.79290000
   168  H          0.84740000       0.19480000       0.70710000
   169  C          0.19473000       0.26122000       0.13983120
   170  C          0.30527000       0.76122000       0.36016880
   171  C          0.80527000       0.73878000       0.86016880
   172  C          0.69473000       0.23878000       0.63983120
   173  H          0.14520000       0.19800000       0.12520000
   174  H          0.35480000       0.69800000       0.37480000
   175  H          0.85480000       0.80200000       0.87480000
   176  H          0.64520000       0.30200000       0.62520000
   177  H          0.26320000       0.28810000       0.11060000
   178  H          0.23680000       0.78810000       0.38940000
   179  H          0.73680000       0.71190000       0.88940000
   180  H          0.76320000       0.21190000       0.61060000
   181  C          0.06244000       0.33602000       0.15122150
   182  C          0.43756000       0.83602000       0.34877850
   183  C          0.93756000       0.66398000       0.84877850
   184  C          0.56244000       0.16398000       0.65122150
   185  H         -0.01110000       0.30600000       0.17790000
   186  H          0.51110000       0.80600000       0.32210000
   187  H          0.01110000       0.69400000       0.82210000
   188  H          0.48890000       0.19400000       0.67790000
   189  H          0.11240000       0.39600000       0.16970000
   190  H          0.38760000       0.89600000       0.33030000
   191  H          0.88760000       0.60400000       0.83030000
   192  H          0.61240000       0.10400000       0.66970000
   193  C          0.96485000       0.36693000       0.09730170
   194  C          0.53515000       0.86693000       0.40269830
   195  C          0.03515000       0.63307000       0.90269830
   196  C          0.46485000       0.13307000       0.59730170
   197  H          0.03590000       0.40060000       0.07180000
   198  H          0.46410000       0.90060000       0.42820000
   199  H          0.96410000       0.59940000       0.92820000
   200  H          0.53590000       0.09940000       0.57180000
   201  H          0.87840000       0.41260000       0.10680000
   202  H          0.62160000       0.91260000       0.39320000
   203  H          0.12160000       0.58740000       0.89320000
   204  H          0.37840000       0.08740000       0.60680000
   205  H          0.91720000       0.30750000       0.07840000
   206  H          0.58280000       0.80750000       0.42160000
   207  H          0.08280000       0.69250000       0.92160000
   208  H          0.41720000       0.19250000       0.57840000
   209  N          0.43273000       0.16349160       0.19337900
   210  N          0.06727000       0.66349160       0.30662100
   211  N          0.56727000       0.83650840       0.80662100
   212  N          0.93273000       0.33650840       0.69337900
   213  C          0.07343000      -0.00778000       0.48322110
   214  C          0.42657000       0.49222000       0.01677890
   215  C          0.92657000       0.00778000       0.51677890
   216  C          0.57343000       0.50778000       0.98322110
   217  F          0.18472000       0.06285130       0.49809700
   218  F          0.31528000       0.56285130       0.00190300
   219  F          0.81528000       0.93714870       0.50190300
   220  F          0.68472000       0.43714870      -0.00190300
   221  F          0.14102000       0.90293130       0.49667700
   222  F          0.35898000       0.40293130       0.00332300
   223  F          0.85898000       0.09706870       0.50332300
   224  F          0.64102000       0.59706870      -0.00332300
   225  I          0.01700200      -0.00184487       0.39145870
   226  I          0.48299800       0.49815513       0.10854130
   227  I         -0.01700200       0.00184487       0.60854130
   228  I          0.51700200       0.50184487       0.89145870
   229  C          0.44004000       0.53632000       0.51121120
   230  C          0.05996000       0.03632000       0.98878880
   231  C          0.55996000       0.46368000       0.48878880
   232  C          0.94004000       0.96368000       0.01121120
   233  F          0.29252000       0.51753160       0.48635800
   234  F          0.20748000       0.01753160       0.01364200
   235  F          0.70748000       0.48246840       0.51364200
   236  F          0.79252000       0.98246840       0.98635800
   237  F          0.48133000       0.62966140       0.49657700
   238  F          0.01867000       0.12966140       0.00342300
   239  F          0.51867000       0.37033860       0.50342300
   240  F          0.98133000       0.87033860      -0.00342300
   241  I          0.43272200       0.52809414       0.60363380
   242  I          0.06727800       0.02809414       0.89636620
   243  I          0.56727800       0.47190586       0.39636620
   244  I          0.93272200       0.97190586       0.10363380
   245  I          0.93826200       0.98900514       0.24795470
   246  I          0.56173800       0.48900514       0.25204530
   247  I          0.06173800       0.01099486       0.75204530
   248  I          0.43826200       0.51099486       0.74795470
