data_IZIVUK
_symmetry_space_group_name_H-M    'P1'
_symmetry_Int_Tables_number       1
loop_
_symmetry_equiv_pos_site_id
_symmetry_equiv_pos_as_xyz
1 x,y,z
_cell_length_a                   4.80792
_cell_length_b                   10.85053
_cell_length_c                   11.76094
_cell_angle_alpha                107.205713
_cell_angle_beta                 96.842513
_cell_angle_gamma                102.206116
loop_
_atom_site_label
_atom_site_type_symbol
_atom_site_fract_x
_atom_site_fract_y
_atom_site_fract_z
     1  Cl         0.90833200       0.72367400       0.93021700
     2  Cl         0.09166800       0.27632600       0.06978300
     3  C          0.68787000       0.60317140       0.97155880
     4  C          0.31213000       0.39682860       0.02844120
     5  C          0.76997000       0.58420130       0.07797120
     6  C          0.23003000       0.41579870       0.92202880
     7  C          0.57827000       0.47752130       0.11360120
     8  C          0.42173000       0.52247870       0.88639880
     9  O          0.65608000       0.46420100       0.21090900
    10  O          0.34392000       0.53579900       0.78909100
    11  O          0.01292000       0.65620100       0.15248900
    12  O         -0.01292000       0.34379900       0.84751100
    13  H          0.05760000       0.63320000       0.21490000
    14  H          0.94240000       0.36680000       0.78510000
    15  O          0.29782000       0.86093100       0.42181900
    16  O          0.70218000       0.13906900       0.57818100
    17  C          0.37713000       0.75775140       0.41569120
    18  C          0.62287000       0.24224860       0.58430880
    19  O          0.26162000       0.64115110       0.34540100
    20  O          0.73838000       0.35884890       0.65459900
    21  C          0.64463000       0.77216140       0.50674120
    22  C          0.35537000       0.22783860       0.49325880
    23  N          0.78642000       0.89523110       0.57817100
    24  N          0.21358000       0.10476890       0.42182900
    25  C          0.02663000       0.92173140       0.66585120
    26  C         -0.02663000       0.07826860       0.33414880
    27  C          0.12053000       0.81263140       0.68399120
    28  C          0.87947000       0.18736860       0.31600880
    29  C         -0.03227000       0.68189140       0.60955130
    30  C          0.03227000       0.31810860       0.39044870
    31  C          0.73713000       0.66237140       0.51933130
    32  C          0.26287000       0.33762860       0.48066870
    33  C          0.36893000       0.84010150       0.77520130
    34  C          0.63107000       0.15989850       0.22479870
    35  C          0.51133000       0.96919160       0.84201130
    36  C          0.48867000       0.03080840       0.15798870
    37  C          0.41433000       0.07675150       0.82237130
    38  C          0.58567000       0.92324850       0.17762870
    39  C          0.17383000       0.05447140       0.73612130
    40  C          0.82617000       0.94552860       0.26387870
    41  H          0.02430000       0.60760000       0.62200000
    42  H         -0.02430000       0.39240000       0.37800000
    43  H          0.63600000       0.57530000       0.46370000
    44  H          0.36400000       0.42470000       0.53630000
    45  H          0.43150000       0.76660000       0.78740000
    46  H          0.56850000       0.23340000       0.21260000
    47  H          0.68020000      -0.01140000       0.90400000
    48  H          0.31980000       0.01140000       0.09600000
    49  H          0.52040000       0.16610000       0.86900000
    50  H          0.47960000       0.83390000       0.13100000
    51  H          0.10640000       0.12460000       0.72300000
    52  H          0.89360000       0.87540000       0.27700000
    53  H          0.72670000       0.96280000       0.56790000
    54  H          0.27330000       0.03720000       0.43210000
