data_IZUXEI
_symmetry_space_group_name_H-M    'P1'
_symmetry_Int_Tables_number       1
loop_
_symmetry_equiv_pos_site_id
_symmetry_equiv_pos_as_xyz
1 x,y,z
_cell_length_a                   15.5805718
_cell_length_b                   14.8172113
_cell_length_c                   15.46162
_cell_angle_alpha                90.0
_cell_angle_beta                 110.635914
_cell_angle_gamma                90.0
loop_
_atom_site_label
_atom_site_type_symbol
_atom_site_fract_x
_atom_site_fract_y
_atom_site_fract_z
     1  Cl         0.00615300       0.67428300       0.15521300
     2  Cl        -0.00615300       0.17428300       0.34478700
     3  Cl        -0.00615300       0.32571700       0.84478700
     4  Cl         0.00615300       0.82571700       0.65521300
     5  Cl         0.21536300       0.79499200       0.30867300
     6  Cl         0.78463700       0.29499200       0.19132700
     7  Cl         0.78463700       0.20500800       0.69132700
     8  Cl         0.21536300       0.70500800       0.80867300
     9  Cl         0.30581300       0.66270300       0.52832300
    10  Cl         0.69418700       0.16270300       0.97167700
    11  Cl         0.69418700       0.33729700       0.47167700
    12  Cl         0.30581300       0.83729700       0.02832300
    13  Cl         0.16081300       0.44718200       0.49921300
    14  Cl         0.83918700       0.94718200       0.00078700
    15  Cl         0.83918700       0.55281800       0.50078700
    16  Cl         0.16081300       0.05281800      -0.00078700
    17  Cl         0.97915800       0.45582300       0.27067300
    18  Cl         0.02084200       0.95582300       0.22932700
    19  Cl         0.02084200       0.54417700       0.72932700
    20  Cl         0.97915800       0.04417700       0.77067300
    21  Cl         0.22483300       0.66143300       0.12572300
    22  Cl         0.77516700       0.16143300       0.37427700
    23  Cl         0.77516700       0.33856700       0.87427700
    24  Cl         0.22483300       0.83856700       0.62572300
    25  Cl         0.40811200       0.65408300       0.35534300
    26  Cl         0.59188800       0.15408300       0.14465700
    27  Cl         0.59188800       0.34591700       0.64465700
    28  Cl         0.40811200       0.84591700       0.85534300
    29  Cl         0.37953200       0.44788200       0.47029300
    30  Cl         0.62046800       0.94788200       0.02970700
    31  Cl         0.62046800       0.55211800       0.52970700
    32  Cl         0.37953200       0.05211800       0.97029300
    33  Cl         0.18134300       0.32530200       0.31217300
    34  Cl         0.81865700       0.82530200       0.18782700
    35  Cl         0.81865700       0.67469800       0.68782700
    36  Cl         0.18134300       0.17469800       0.81217300
    37  Cl         0.08652300       0.46009300       0.09916300
    38  Cl         0.91347700       0.96009300       0.40083700
    39  Cl         0.91347700       0.53990700       0.90083700
    40  Cl         0.08652300       0.03990700       0.59916300
    41  Cl         0.33393200       0.44948200       0.21691300
    42  Cl         0.66606800       0.94948200       0.28308700
    43  Cl         0.66606800       0.55051800       0.78308700
    44  Cl         0.33393200       0.05051800       0.71691300
    45  N          0.05644900       0.66953900       0.40583900
    46  N          0.94355100       0.16953900       0.09416100
    47  N          0.94355100       0.33046100       0.59416100
    48  N          0.05644900       0.83046100       0.90583900
    49  C          0.06692140       0.76996110       0.40061140
    50  C          0.93307860       0.26996110       0.09938860
    51  C          0.93307860       0.23003890       0.59938860
    52  C          0.06692140       0.73003890       0.90061140
    53  H          0.13090000       0.78680000       0.43430000
    54  H          0.86910000       0.28680000       0.06570000
    55  H          0.86910000       0.21320000       0.56570000
    56  H          0.13090000       0.71320000       0.93430000
    57  H          0.02700000       0.80030000       0.42840000
    58  H          0.97300000       0.30030000       0.07160000
    59  H          0.97300000       0.19970000       0.57160000
    60  H          0.02700000       0.69970000       0.92840000
    61  H          0.04970000       0.78830000       0.33580000
    62  H          0.95030000       0.28830000       0.16420000
    63  H          0.95030000       0.21170000       0.66420000
    64  H          0.04970000       0.71170000       0.83580000
    65  C          0.07595120       0.64708120       0.50608120
    66  C          0.92404880       0.14708120      -0.00608120
    67  C          0.92404880       0.35291880       0.49391880
    68  C          0.07595120       0.85291880       0.00608120
    69  H          0.06000000       0.58390000       0.51150000
    70  H          0.94000000       0.08390000       0.98850000
    71  H          0.94000000       0.41610000       0.48850000
    72  H          0.06000000       0.91610000       0.01150000
    73  H          0.03930000       0.68630000       0.53060000
    74  H          0.96070000       0.18630000       0.96940000
    75  H          0.96070000       0.31370000       0.46940000
    76  H          0.03930000       0.81370000       0.03060000
    77  H          0.14120000       0.65650000       0.54130000
    78  H          0.85880000       0.15650000       0.95870000
    79  H          0.85880000       0.34350000       0.45870000
    80  H          0.14120000       0.84350000       0.04130000
    81  C          0.95623890       0.64905140       0.35625130
    82  C          0.04376110       0.14905140       0.14374870
    83  C          0.04376110       0.35094860       0.64374870
    84  C          0.95623890       0.85094860       0.85625130
    85  H          0.93940000       0.66360000       0.29050000
    86  H          0.06060000       0.16360000       0.20950000
    87  H          0.06060000       0.33640000       0.70950000
    88  H          0.93940000       0.83640000       0.79050000
    89  H          0.91920000       0.68540000       0.38290000
    90  H          0.08080000       0.18540000       0.11710000
    91  H          0.08080000       0.31460000       0.61710000
    92  H          0.91920000       0.81460000       0.88290000
    93  H          0.94500000       0.58480000       0.36310000
    94  H          0.05500000       0.08480000       0.13690000
    95  H          0.05500000       0.41520000       0.63690000
    96  H          0.94500000       0.91520000       0.86310000
    97  B          0.12106110       0.61701110       0.36157120
    98  B          0.87893890       0.11701110       0.13842880
    99  B          0.87893890       0.38298890       0.63842880
   100  B          0.12106110       0.88298890       0.86157120
   101  B          0.10023110       0.61647110       0.23918120
   102  B          0.89976890       0.11647110       0.26081880
   103  B          0.89976890       0.38352890       0.76081880
   104  B          0.10023110       0.88352890       0.73918120
   105  B          0.19854110       0.67556110       0.31488120
   106  B          0.80145890       0.17556110       0.18511880
   107  B          0.80145890       0.32443890       0.68511880
   108  B          0.19854110       0.82443890       0.81488120
   109  B          0.24429110       0.61082110       0.41949120
   110  B          0.75570890       0.11082110       0.08050880
   111  B          0.75570890       0.38917890       0.58050880
   112  B          0.24429110       0.88917890       0.91949120
   113  B          0.17535110       0.51012110       0.40610110
   114  B          0.82464890       0.01012110       0.09389890
   115  B          0.82464890       0.48987890       0.59389890
   116  B          0.17535110       0.98987890       0.90610110
   117  B          0.08667110       0.51387110       0.29468110
   118  B          0.91332890       0.01387110       0.20531890
   119  B          0.91332890       0.48612890       0.70531890
   120  B          0.08667110       0.98612890       0.79468110
   121  B          0.20821110       0.60969110       0.22266120
   122  B          0.79178890       0.10969110       0.27733880
   123  B          0.79178890       0.39030890       0.77733880
   124  B          0.20821110       0.89030890       0.72266120
   125  B          0.29695110       0.60600110       0.33376120
   126  B          0.70304890       0.10600110       0.16623880
   127  B          0.70304890       0.39399890       0.66623880
   128  B          0.29695110       0.89399890       0.83376120
   129  B          0.28373100       0.50505110       0.38973110
   130  B          0.71626900       0.00505110       0.11026890
   131  B          0.71626900       0.49494890       0.61026890
   132  B          0.28373100      -0.00505110       0.88973110
   133  B          0.18707110       0.44629100       0.31259110
   134  B          0.81292890       0.94629100       0.18740890
   135  B          0.81292890       0.55370900       0.68740890
   136  B          0.18707110       0.05370900       0.81259110
   137  B          0.14031110       0.51078110       0.20977110
   138  B          0.85968890       0.01078110       0.29022890
   139  B          0.85968890       0.48921890       0.79022890
   140  B          0.14031110       0.98921890       0.70977110
   141  B          0.26150100       0.50557110       0.26823110
   142  B          0.73849900       0.00557110       0.23176890
   143  B          0.73849900       0.49442890       0.73176890
   144  B          0.26150100      -0.00557110       0.76823110
   145  S          0.63713200       0.04234300       0.49925300
   146  S          0.36286800       0.54234300       0.00074700
   147  S          0.36286800       0.95765700       0.50074700
   148  S          0.63713200       0.45765700      -0.00074700
   149  S          0.47933300       0.12469300       0.58825300
   150  S          0.52066700       0.62469300       0.91174700
   151  S          0.52066700       0.87530700       0.41174700
   152  S          0.47933300       0.37530700       0.08825300
   153  C          0.63804100       0.02612100       0.61023110
   154  C          0.36195900       0.52612100       0.88976890
   155  C          0.36195900       0.97387900       0.38976890
   156  C          0.63804100       0.47387900       0.11023110
   157  C          0.71105110       0.97228880       0.66666120
   158  C          0.28894890       0.47228880       0.83333880
   159  C          0.28894890       0.02771120       0.33333880
   160  C          0.71105110       0.52771120       0.16666120
   161  H          0.75560000       0.94960000       0.64320000
   162  H          0.24440000       0.44960000       0.85680000
   163  H          0.24440000       0.05040000       0.35680000
   164  H          0.75560000       0.55040000       0.14320000
   165  C          0.71748120       0.95277870       0.75542120
   166  C          0.28251880       0.45277870       0.74457880
   167  C          0.28251880       0.04722130       0.24457880
   168  C          0.71748120       0.54722130       0.25542120
   169  H          0.76580000       0.91510000       0.79260000
   170  H          0.23420000       0.41510000       0.70740000
   171  H          0.23420000       0.08490000       0.20740000
   172  H          0.76580000       0.58490000       0.29260000
   173  C          0.65403120       0.98744860       0.79216120
   174  C          0.34596880       0.48744860       0.70783880
   175  C          0.34596880       0.01255140       0.20783880
   176  C          0.65403120       0.51255140       0.29216120
   177  H          0.65970000       0.97350000       0.85390000
   178  H          0.34030000       0.47350000       0.64610000
   179  H          0.34030000       0.02650000       0.14610000
   180  H          0.65970000       0.52650000       0.35390000
   181  C          0.58412110       0.04115120       0.73942110
   182  C          0.41587890       0.54115120       0.76057890
   183  C          0.41587890       0.95884880       0.26057890
   184  C          0.58412110       0.45884880       0.23942110
   185  H          0.54180000       0.06540000       0.76500000
   186  H          0.45820000       0.56540000       0.73500000
   187  H          0.45820000       0.93460000       0.23500000
   188  H          0.54180000       0.43460000       0.26500000
   189  C          0.57423100       0.06083100       0.64726110
   190  C          0.42576900       0.56083100       0.85273890
   191  C          0.42576900       0.93916900       0.35273890
   192  C          0.57423100       0.43916900       0.14726110
   193  C          0.48899100       0.15581100       0.48480110
   194  C          0.51100900       0.65581100       0.01519890
   195  C          0.51100900       0.84418900       0.51519890
   196  C          0.48899100       0.34418900       0.98480110
   197  C          0.42445110       0.22016110       0.43439130
   198  C          0.57554890       0.72016110       0.06560870
   199  C          0.57554890       0.77983890       0.56560870
   200  C          0.42445110       0.27983890       0.93439130
   201  H          0.38360000       0.24640000       0.46060000
   202  H          0.61640000       0.74640000       0.03940000
   203  H          0.61640000       0.75360000       0.53940000
   204  H          0.38360000       0.25360000       0.96060000
   205  C          0.42010120       0.24515110       0.34792130
   206  C          0.57989880       0.74515110       0.15207870
   207  C          0.57989880       0.75484890       0.65207870
   208  C          0.42010120       0.25484890       0.84792130
   209  H          0.37590000       0.28830000       0.31410000
   210  H          0.62410000       0.78830000       0.18590000
   211  H          0.62410000       0.71170000       0.68590000
   212  H          0.37590000       0.21170000       0.81410000
   213  C          0.48042120       0.20742120       0.30893120
   214  C          0.51957880       0.70742120       0.19106880
   215  C          0.51957880       0.79257880       0.69106880
   216  C          0.48042120       0.29257880       0.80893120
   217  H          0.47620000       0.22430000       0.24830000
   218  H          0.52380000       0.72430000       0.25170000
   219  H          0.52380000       0.77570000       0.75170000
   220  H          0.47620000       0.27570000       0.74830000
   221  C          0.54572110       0.14602110       0.35780110
   222  C          0.45427890       0.64602110       0.14219890
   223  C          0.45427890       0.85397890       0.64219890
   224  C          0.54572110       0.35397890       0.85780110
   225  H          0.58720000       0.12160000       0.33130000
   226  H          0.41280000       0.62160000       0.16870000
   227  H          0.41280000       0.87840000       0.66870000
   228  H          0.58720000       0.37840000       0.83130000
   229  C          0.55127100       0.11933100       0.44657110
   230  C          0.44872900       0.61933100       0.05342890
   231  C          0.44872900       0.88066900       0.55342890
   232  C          0.55127100       0.38066900       0.94657110
   233  S          0.21018300       0.20905300       0.53999400
   234  S          0.78981700       0.70905300       0.96000600
   235  S          0.78981700       0.79094700       0.46000600
   236  S          0.21018300       0.29094700       0.03999400
   237  O          0.24686100       0.15124100       0.48986100
   238  O          0.75313900       0.65124100       0.01013900
   239  O          0.75313900       0.84875900       0.51013900
   240  O          0.24686100       0.34875900       0.98986100
   241  O          0.27103150       0.25915110       0.61285120
   242  O          0.72896850       0.75915110       0.88714880
   243  O          0.72896850       0.74084890       0.38714880
   244  O          0.27103150       0.24084890       0.11285120
