data_JAHNAH10
_symmetry_space_group_name_H-M    'P1'
_symmetry_Int_Tables_number       1
loop_
_symmetry_equiv_pos_site_id
_symmetry_equiv_pos_as_xyz
1 x,y,z
_cell_length_a                   9.7162
_cell_length_b                   14.9953
_cell_length_c                   9.4522
_cell_angle_alpha                90.0
_cell_angle_beta                 114.071
_cell_angle_gamma                90.0
loop_
_atom_site_label
_atom_site_type_symbol
_atom_site_fract_x
_atom_site_fract_y
_atom_site_fract_z
     1  S          0.16131000       0.41611000       0.65191000
     2  S          0.83869000       0.91611000       0.84809000
     3  S          0.83869000       0.58389000       0.34809000
     4  S          0.16131000       0.08389000       0.15191000
     5  S          0.34731000       0.42111000       0.85921000
     6  S          0.65269000       0.92111000       0.64079000
     7  S          0.65269000       0.57889000       0.14079000
     8  S          0.34731000       0.07889000       0.35921000
     9  N          0.22505000       0.48773000       0.56555000
    10  N          0.77495000       0.98773000       0.93445000
    11  N          0.77495000       0.51227000       0.43445000
    12  N          0.22505000       0.01227000       0.06555000
    13  N          0.43705000       0.49173000       0.79955000
    14  N          0.56295000      -0.00827000       0.70045000
    15  N          0.56295000       0.50827000       0.20045000
    16  N          0.43705000       0.00827000       0.29955000
    17  C          0.36116000       0.52093000       0.65425000
    18  C          0.63884000       0.02093000       0.84575000
    19  C          0.63884000       0.47907000       0.34575000
    20  C          0.36116000       0.97907000       0.15425000
    21  C          0.43315000       0.58763000       0.58906000
    22  C          0.56685000       0.08763000       0.91094000
    23  C          0.56685000       0.41237000       0.41094000
    24  C          0.43315000       0.91237000       0.08906000
    25  C          0.36396000       0.61233000       0.43656000
    26  C          0.63604000       0.11233000       0.06344000
    27  C          0.63604000       0.38767000       0.56344000
    28  C          0.36396000       0.88767000       0.93656000
    29  C          0.43667000       0.67123000       0.37486000
    30  C          0.56333000       0.17123000       0.12514000
    31  C          0.56333000       0.32877000       0.62514000
    32  C          0.43667000       0.82877000       0.87486000
    33  C          0.57557000       0.70484000       0.46877000
    34  C          0.42443000       0.20484000       0.03123000
    35  C          0.42443000       0.29516000       0.53123000
    36  C          0.57557000       0.79516000       0.96877000
    37  C          0.64567000       0.68044000       0.62397000
    38  C          0.35433000       0.18044000       0.87603000
    39  C          0.35433000       0.31956000       0.37603000
    40  C          0.64567000       0.81956000       0.12397000
    41  C          0.57206000       0.62263000       0.68477000
    42  C          0.42794000       0.12263000       0.81523000
    43  C          0.42794000       0.37737000       0.31523000
    44  C          0.57206000       0.87737000       0.18477000
    45  S         -0.00171000       0.52471000       0.78031000
    46  S          0.00171000       0.02471000       0.71969000
    47  S          0.00171000       0.47529000       0.21969000
    48  S         -0.00171000       0.97529000       0.28031000
    49  S          0.19881000       0.53241000      -0.00819000
    50  S          0.80119000       0.03241000       0.50819000
    51  S          0.80119000       0.46759000       0.00819000
    52  S          0.19881000       0.96759000       0.49181000
    53  S          0.14562000       0.68542000       0.81542000
    54  S          0.85438000       0.18542000       0.68458000
    55  S          0.85438000       0.31458000       0.18458000
    56  S          0.14562000       0.81458000       0.31542000
    57  N          0.24795000       0.63303000       0.96556000
    58  N          0.75205000       0.13303000       0.53444000
    59  N          0.75205000       0.36697000       0.03444000
    60  N          0.24795000       0.86697000       0.46556000
    61  N          0.01035000       0.62463000       0.71796000
    62  N         -0.01035000       0.12463000       0.78204000
    63  N         -0.01035000       0.37537000       0.28204000
    64  N          0.01035000       0.87537000       0.21796000
    65  Cl         0.07782000       0.34931000       0.92112000
    66  Cl         0.92218000       0.84931000       0.57888000
    67  Cl         0.92218000       0.65069000       0.07888000
    68  Cl         0.07782000       0.15069000       0.42112000
