data_JAHNEL
_symmetry_space_group_name_H-M    'P1'
_symmetry_Int_Tables_number       1
loop_
_symmetry_equiv_pos_site_id
_symmetry_equiv_pos_as_xyz
1 x,y,z
_cell_length_a                   9.5092
_cell_length_b                   10.6412
_cell_length_c                   12.1873
_cell_angle_alpha                98.291
_cell_angle_beta                 107.611
_cell_angle_gamma                112.081
loop_
_atom_site_label
_atom_site_type_symbol
_atom_site_fract_x
_atom_site_fract_y
_atom_site_fract_z
     1  S          0.05791000       0.41501000       0.28421000
     2  S          0.94209000       0.58499000       0.71579000
     3  S         -0.01221000       0.37341000       0.10271000
     4  S          0.01221000       0.62659000       0.89729000
     5  N          0.23863000       0.53643000       0.31692000
     6  N          0.76137000       0.46357000       0.68308000
     7  N          0.15973000       0.49163000       0.10992000
     8  N          0.84027000       0.50837000       0.89008000
     9  C          0.27324000       0.56483000       0.22033000
    10  C          0.72676000       0.43517000       0.77967000
    11  C          0.43394000       0.67663000       0.23793000
    12  C          0.56606000       0.32337000       0.76207000
    13  C          0.46485000       0.71154000       0.13914000
    14  C          0.53515000       0.28846000       0.86086000
    15  C          0.61766000       0.82005000       0.15906000
    16  C          0.38234000       0.17995000       0.84094000
    17  C          0.73426000       0.88865000       0.27287000
    18  C          0.26574000       0.11135000       0.72713000
    19  C          0.70465000       0.85384000       0.37115000
    20  C          0.29535000       0.14616000       0.62885000
    21  C          0.55394000       0.74814000       0.35344000
    22  C          0.44606000       0.25186000       0.64656000
    23  H          0.38280000       0.66200000       0.05890000
    24  H          0.61720000       0.33800000       0.94110000
    25  H          0.64080000       0.84630000       0.09200000
    26  H          0.35920000       0.15370000       0.90800000
    27  H          0.83880000       0.96270000       0.28500000
    28  H          0.16120000       0.03730000       0.71500000
    29  H          0.78810000       0.90250000       0.45080000
    30  H          0.21190000       0.09750000       0.54920000
    31  H          0.53180000       0.72380000       0.42130000
    32  H          0.46820000       0.27620000       0.57870000
    33  S          0.35631000      -0.00431000       0.11501000
    34  S          0.64369000       0.00431000       0.88499000
    35  S          0.51101000       0.10171000       0.29111000
    36  S          0.48899000       0.89829000       0.70889000
    37  N          0.21023000       0.89067000       0.14552000
    38  N          0.78977000       0.10933000       0.85448000
    39  N          0.38573000       0.01193000       0.34563000
    40  N          0.61427000      -0.01193000       0.65437000
    41  C          0.24204000       0.90877000       0.26303000
    42  C          0.75796000       0.09123000       0.73697000
    43  C          0.12184000       0.81277000       0.30323000
    44  C          0.87816000       0.18723000       0.69677000
    45  C          0.16515000       0.82196000       0.42423000
    46  C          0.83485000       0.17804000       0.57577000
    47  C          0.05555000       0.73225000       0.46324000
    48  C          0.94445000       0.26775000       0.53676000
    49  C          0.90295000       0.63276000       0.38244000
    50  C          0.09705000       0.36724000       0.61756000
    51  C          0.85885000       0.62196000       0.26184000
    52  C          0.14115000       0.37804000       0.73816000
    53  C          0.96586000       0.71126000       0.22043000
    54  C          0.03414000       0.28874000       0.77957000
    55  H          0.27200000       0.89130000       0.48140000
    56  H          0.72800000       0.10870000       0.51860000
    57  H          0.08650000       0.73970000       0.54740000
    58  H          0.91350000       0.26030000       0.45260000
    59  H          0.82710000       0.57070000       0.40990000
    60  H          0.17290000       0.42930000       0.59010000
    61  H          0.75220000       0.55150000       0.20540000
    62  H          0.24780000       0.44850000       0.79460000
    63  H          0.93360000       0.70380000       0.13620000
    64  H          0.06640000       0.29620000       0.86380000
    65  S          0.43921000       0.35381000       0.30461000
    66  S          0.56079000       0.64619000       0.69539000
    67  S          0.12511000       0.16841000       0.28871000
    68  S          0.87489000       0.83159000       0.71129000
    69  S          0.18531000       0.18501000       0.07711000
    70  S          0.81469000       0.81499000       0.92289000
    71  N          0.36654000       0.30634000       0.16183000
    72  N          0.63346000       0.69366000       0.83817000
    73  N          0.31374000       0.28494000       0.36563000
    74  N          0.68626000       0.71506000       0.63437000
    75  N          0.07103000       0.12063000       0.14673000
    76  N          0.92897000       0.87937000       0.85327000
    77  Cl         0.70779000       0.20501000       0.15381000
    78  Cl         0.29221000       0.79499000       0.84619000
