data_JAKCOR
_symmetry_space_group_name_H-M    'P1'
_symmetry_Int_Tables_number       1
loop_
_symmetry_equiv_pos_site_id
_symmetry_equiv_pos_as_xyz
1 x,y,z
_cell_length_a                   8.42055
_cell_length_b                   9.81225
_cell_length_c                   11.29286
_cell_angle_alpha                93.9984
_cell_angle_beta                 101.8295
_cell_angle_gamma                108.5005
loop_
_atom_site_label
_atom_site_type_symbol
_atom_site_fract_x
_atom_site_fract_y
_atom_site_fract_z
     1  Br         0.27242300       0.67718200       0.75529200
     2  Br         0.72757700       0.32281800       0.24470800
     3  Cl         0.11398700       0.15503600       0.38822600
     4  Cl         0.88601300       0.84496400       0.61177400
     5  S          0.46926700       0.78814600       0.17080500
     6  S          0.53073300       0.21185400       0.82919500
     7  O          0.43982190       0.91962160       0.20682140
     8  O          0.56017810       0.08037840       0.79317860
     9  O          0.42286190       0.72988170       0.04385130
    10  O          0.57713810       0.27011830       0.95614870
    11  N          0.36712000       0.65752000       0.23582170
    12  N          0.63288000       0.34248000       0.76417830
    13  H          0.30940000       0.57930000       0.18620000
    14  H          0.69060000       0.42070000       0.81380000
    15  C          0.35533000       0.66522000       0.35916190
    16  C          0.64467000       0.33478000       0.64083810
    17  C          0.24363000       0.54362000       0.39252000
    18  C          0.75637000       0.45638000       0.60748000
    19  H          0.18281100       0.45919100       0.33386700
    20  H          0.81718900       0.54080900       0.66613300
    21  C          0.22093000       0.54522000       0.51012000
    22  C          0.77907000       0.45478000       0.48988000
    23  H          0.14503700       0.46207300       0.53258700
    24  H          0.85496300       0.53792700       0.46741300
    25  C          0.30973000       0.66902000       0.59535190
    26  C          0.69027000       0.33098000       0.40464810
    27  C          0.42553000       0.78882000       0.56452000
    28  C          0.57447000       0.21118000       0.43548000
    29  H          0.48898300       0.87189700       0.62410300
    30  H          0.51101700       0.12810300       0.37589700
    31  C          0.44813000       0.78662000       0.44639190
    32  C          0.55187000       0.21338000       0.55360810
    33  H          0.52736300       0.86841600       0.42494700
    34  H          0.47263700       0.13158400       0.57505300
    35  C          0.69163000       0.81872000       0.22862190
    36  C          0.30837000       0.18128000       0.77137810
    37  C          0.80083000       0.95842000       0.28144180
    38  C          0.19917000       0.04158000       0.71855820
    39  H          0.75684900       0.03562600       0.28974200
    40  H          0.24315100       0.96437400       0.71025800
    41  C         -0.02467000       0.98122000       0.32152000
    42  C          0.02467000       0.01878000       0.67848000
    43  C          0.04093000       0.87093000       0.30992000
    44  C          0.95907000       0.12907000       0.69008000
    45  H          0.16117200       0.88924600       0.33785100
    46  H          0.83882800       0.11075400       0.66214900
    47  C          0.93013000       0.73213000       0.25712000
    48  C          0.06987000       0.26787000       0.74288000
    49  H         -0.02513400       0.65535400       0.24894400
    50  H          0.02513400       0.34464600       0.75105600
    51  C          0.75443000       0.70522000       0.21612000
    52  C          0.24557000       0.29478000       0.78388000
    53  H          0.67834200       0.61047600       0.17997700
    54  H          0.32165800       0.38952400       0.82002300
    55  N          0.17812000       0.38193190       0.09600160
    56  N          0.82188000       0.61806810       0.90399840
    57  C          0.27633000       0.29913000       0.10212000
    58  C          0.72367000       0.70087000       0.89788000
    59  H          0.39722900       0.34490400       0.13282500
    60  H          0.60277100       0.65509600       0.86717500
    61  C          0.21383000       0.15053000       0.06682000
    62  C          0.78617000       0.84947000       0.93318000
    63  H          0.29066800       0.09692000       0.07397300
    64  H          0.70933200       0.90308000       0.92602700
    65  C          0.03733000       0.07982000       0.02039180
    66  C          0.96267000       0.92018000       0.97960820
    67  C          0.93457000       0.16672000       0.01432000
    68  C          0.06543000       0.83328000       0.98568000
    69  H          0.81319700       0.12416900       0.98400700
    70  H          0.18680300       0.87583100       0.01599300
    71  C          0.00843000       0.31472000       0.05212000
    72  C         -0.00843000       0.68528000       0.94788000
    73  H          0.93509600       0.37148800       0.04656600
    74  H          0.06490400       0.62851200       0.95343400
