data_JAKDIM
_symmetry_space_group_name_H-M    'P1'
_symmetry_Int_Tables_number       1
loop_
_symmetry_equiv_pos_site_id
_symmetry_equiv_pos_as_xyz
1 x,y,z
_cell_length_a                   11.72764
_cell_length_b                   14.38534
_cell_length_c                   16.93855
_cell_angle_alpha                99.0892
_cell_angle_beta                 98.9442
_cell_angle_gamma                110.7993
loop_
_atom_site_label
_atom_site_type_symbol
_atom_site_fract_x
_atom_site_fract_y
_atom_site_fract_z
     1  Br         0.19338300       0.86506200       0.32336200
     2  Br         0.80661700       0.13493800       0.67663800
     3  Br         0.58281300       0.00858200       0.27441200
     4  Br         0.41718700      -0.00858200       0.72558800
     5  S          0.70413600       0.64355500       0.38456400
     6  S          0.29586400       0.35644500       0.61543600
     7  O          0.60447170       0.57993140       0.41508110
     8  O          0.39552830       0.42006860       0.58491890
     9  O          0.75108170       0.59760140       0.32242110
    10  O          0.24891830       0.40239860       0.67757890
    11  N          0.81862000       0.70456180       0.46533150
    12  N          0.18138000       0.29543820       0.53466850
    13  C          0.93352000       0.78502190       0.46650150
    14  C          0.06648000       0.21497810       0.53349850
    15  C         -0.00578000       0.78522000       0.40179160
    16  C          0.00578000       0.21478000       0.59820840
    17  H          0.95789800       0.73265000       0.35293100
    18  H          0.04210200       0.26735000       0.64706900
    19  C          0.10932000       0.86452000       0.41083160
    20  C          0.89068000       0.13548000       0.58916840
    21  C          0.16523000       0.94252000       0.48079160
    22  C          0.83477000       0.05748000       0.51920840
    23  H          0.24381500      -0.00419200       0.48520100
    24  H          0.75618500       0.00419200       0.51479900
    25  C          0.10303000       0.94092000       0.54487170
    26  C          0.89697000       0.05908000       0.45512830
    27  H          0.13959100      -0.00645300       0.59367000
    28  H          0.86040900       0.00645300       0.40633000
    29  C         -0.01118000       0.86302000       0.53753160
    30  C          0.01118000       0.13698000       0.46246840
    31  H          0.94732100       0.86261000       0.58146300
    32  H          0.05267900       0.13739000       0.41853700
    33  C          0.65992000       0.73692000       0.34864160
    34  C          0.34008000       0.26308000       0.65135840
    35  C          0.59012000       0.77882000       0.39120170
    36  C          0.40988000       0.22118000       0.60879830
    37  H          0.56085700       0.75315200       0.43578200
    38  H          0.43914300       0.24684800       0.56421800
    39  C          0.56443000       0.85802000       0.36744170
    40  C          0.43557000       0.14198000       0.63255830
    41  H          0.51668700       0.88742000       0.39535600
    42  H          0.48331300       0.11258000       0.60464400
    43  C          0.60883000       0.89432000       0.30242170
    44  C          0.39117000       0.10568000       0.69757830
    45  C          0.67243000       0.85012000       0.25728170
    46  C          0.32757000       0.14988000       0.74271830
    47  H          0.69728000       0.87345900       0.21083600
    48  H          0.30272000       0.12654100       0.78916400
    49  C          0.69922000       0.77092000       0.28112160
    50  C          0.30078000       0.22908000       0.71887840
    51  H          0.74407100       0.73992900       0.25160100
    52  H          0.25592900       0.26007100       0.74839900
    53  H          0.79130000       0.71420000       0.50121800
    54  H          0.20870000       0.28580000       0.49878200
    55  Br         0.84509700       0.59964200       0.15621200
    56  Br         0.15490300       0.40035800       0.84378800
    57  Br         0.47138300       0.47383200       0.15727200
    58  Br         0.52861700       0.52616800       0.84272800
    59  S          0.31838600       0.84525500       0.09369400
    60  S          0.68161400       0.15474500       0.90630600
    61  O          0.41491170       0.91684140       0.06630110
    62  O          0.58508830       0.08315860       0.93369890
    63  O          0.27092170       0.88047140       0.16045110
    64  O          0.72907830       0.11952860       0.83954890
    65  N          0.20282000       0.79071170       0.01252150
    66  N          0.79718000       0.20928830       0.98747850
    67  C          0.08982000       0.70762000       0.00929160
    68  C          0.91018000       0.29238000       0.99070840
    69  C          0.03133000       0.63712000       0.93407170
    70  C          0.96867000       0.36288000       0.06592830
    71  H          0.06947900       0.64454300       0.88865500
    72  H          0.93052100       0.35545700       0.11134500
    73  C          0.91907000       0.55692000       0.92507170
    74  C          0.08093000       0.44308000       0.07492830
    75  H          0.87967000       0.51016400       0.87325000
    76  H          0.12033000       0.48983600       0.12675000
    77  C          0.86297000       0.54362000       0.99112170
    78  C          0.13703000       0.45638000       0.00887830
    79  H          0.78647000       0.48737800       0.98571700
    80  H          0.21353000       0.51262200       0.01428300
    81  C          0.92178000       0.61472000       0.06509160
    82  C          0.07822000       0.38528000       0.93490840
    83  C          0.03362000       0.69692000       0.07555160
    84  C          0.96638000       0.30308000       0.92444840
    85  H          0.07115500       0.74502800       0.12685300
    86  H          0.92884500       0.25497200       0.87314700
    87  C          0.36822000       0.74862000       0.11717160
    88  C          0.63178000       0.25138000       0.88282840
    89  C          0.33293000       0.70182000       0.18054160
    90  C          0.66707000       0.29818000       0.81945840
    91  H          0.28640600       0.72510800       0.21432500
    92  H          0.71359400       0.27489200       0.78567500
    93  C          0.36573000       0.62142000       0.19401170
    94  C          0.63427000       0.37858000       0.80598830
    95  H          0.34279300       0.58926900       0.23725800
    96  H          0.65720700       0.41073100       0.76274200
    97  C          0.43263000       0.58842000       0.14334180
    98  C          0.56737000       0.41158000       0.85665820
    99  C          0.47133000       0.63632000       0.08179180
   100  C          0.52867000       0.36368000       0.91820820
   101  H          0.51965800       0.61394300       0.04912500
   102  H          0.48034200       0.38605700       0.95087500
   103  C          0.43893000       0.71652000       0.06847170
   104  C          0.56107000       0.28348000       0.93152830
   105  H          0.46455900       0.74977200       0.02631900
   106  H          0.53544100       0.25022800       0.97368100
   107  H          0.23330000       0.78320000       0.97420000
   108  H          0.76670000       0.21680000       0.02580000
   109  N          0.70472000       0.74239180       0.59693140
   110  N          0.29528000       0.25760820       0.40306860
   111  N          0.31582000       0.76517170       0.87537140
   112  N          0.68418000       0.23482830       0.12462860
   113  C          0.70933000       0.83152000       0.63789170
   114  C          0.29067000       0.16848000       0.36210830
   115  H          0.76532900       0.89262900       0.62805200
   116  H          0.23467100       0.10737100       0.37194800
   117  C          0.63703000       0.83982000       0.69386170
   118  C          0.36297000       0.16018000       0.30613830
   119  H          0.64341400       0.90506400       0.72110700
   120  H          0.35658600       0.09493600       0.27889300
   121  C          0.55502000       0.75142000       0.70968160
   122  C          0.44498000       0.24858000       0.29031840
   123  C          0.54993000       0.65862000       0.66701160
   124  C          0.45007000       0.34138000       0.33298840
   125  H          0.49539400       0.59619800       0.67585700
   126  H          0.50460600       0.40380200       0.32414300
   127  C          0.62463000       0.65802000       0.61170170
   128  C          0.37537000       0.34198000       0.38829830
   129  H          0.61860400       0.59374900       0.58246800
   130  H          0.38139600       0.40625100       0.41753200
   131  C          0.42293000       0.84412000       0.88079170
   132  C          0.57707000       0.15588000       0.11920830
   133  H          0.44468400       0.90453600       0.92197600
   134  H          0.55531600       0.09546400       0.07802400
   135  C          0.50342000       0.84222000       0.82944160
   136  C          0.49658000       0.15778000       0.17055840
   137  H          0.57869100       0.89998600       0.83609900
   138  H          0.42130900       0.10001400       0.16390100
   139  C          0.47362000       0.75529190       0.76810150
   140  C          0.52638000       0.24470810       0.23189850
   141  C          0.36322000       0.67262000       0.76349160
   142  C          0.63678000       0.32738000       0.23650840
   143  H          0.33982800       0.61078100       0.72359300
   144  H          0.66017200       0.38921900       0.27640700
   145  C          0.28813000       0.68082000       0.81691160
   146  C          0.71187000       0.31918000       0.18308840
   147  H          0.21278900       0.62378500       0.81211500
   148  H          0.78721100       0.37621500       0.18788500
   149  N          0.08182000       0.95432000       0.74765150
   150  N          0.91818000       0.04568000       0.25234850
   151  N          0.71922000       0.84892000       0.04828170
   152  N          0.28078000       0.15108000       0.95171830
   153  C          0.07613000       0.88042000       0.78618190
   154  C          0.92387000       0.11958000       0.21381810
   155  H          0.12435000       0.84145700       0.77387300
   156  H          0.87565000       0.15854300       0.22612700
   157  C          0.00473000       0.85602000       0.84321190
   158  C         -0.00473000       0.14398000       0.15678810
   159  H          0.00416700       0.80118800       0.86818800
   160  H         -0.00416700       0.19881200       0.13181200
   161  C          0.93363000       0.91142000       0.86406160
   162  C          0.06637000       0.08858000       0.13593840
   163  C          0.93913000      -0.01018000       0.82391180
   164  C          0.06087000       0.01018000       0.17608820
   165  H          0.89235000       0.03043700       0.83507500
   166  H          0.10765000       0.96956300       0.16492500
   167  C          0.01343000       0.00783000       0.76770190
   168  C         -0.01343000      -0.00783000       0.23229810
   169  H          0.01615800       0.06190500       0.74140300
   170  H         -0.01615800       0.93809500       0.25859700
   171  C          0.75663000       0.78053000       0.00942000
   172  C          0.24337000       0.21947000       0.99058000
   173  H          0.73571500       0.71660000       0.02443600
   174  H          0.26428500       0.28340000       0.97556400
   175  C          0.82323000       0.79563000       0.94912000
   176  C          0.17677000       0.20437000       0.05088000
   177  H          0.84525800       0.74293800       0.92321200
   178  H          0.15474200       0.25706200       0.07678800
   179  C          0.85773000       0.88912000       0.92659170
   180  C          0.14227000       0.11088000       0.07340830
   181  C          0.81903000       0.96032000       0.96634170
   182  C          0.18097000       0.03968000       0.03365830
   183  H          0.83946500       0.02527600       0.95328400
   184  H          0.16053500       0.97472400       0.04671600
   185  C          0.75013000       0.93673000       0.02532190
   186  C          0.24987000       0.06327000       0.97467810
   187  H          0.72347500       0.98659900       0.05075200
   188  H          0.27652500       0.01340100       0.94924800
   189  N          0.63792000       0.28602000       0.50082160
   190  N          0.36208000       0.71398000       0.49917840
   191  N          0.12922000       0.48742000       0.29605160
   192  N          0.87078000       0.51258000       0.70394840
   193  C          0.69013000       0.38612000       0.50287180
   194  C          0.30987000       0.61388000       0.49712820
   195  H          0.65801700       0.43005700       0.53135000
   196  H          0.34198300       0.56994300       0.46865000
   197  C          0.78743000       0.42962000       0.46630170
   198  C          0.21257000       0.57038000       0.53369830
   199  H          0.82046300       0.50120500       0.47020100
   200  H          0.17953700       0.49879500       0.52979900
   201  C          0.83653000       0.36772000       0.42381170
   202  C          0.16347000       0.63228000       0.57618830
   203  C          0.78283000       0.26352000       0.42141180
   204  C          0.21717000       0.73648000       0.57858820
   205  H          0.81285300       0.21758200       0.39347000
   206  H          0.18714700       0.78241800       0.60653000
   207  C          0.68593000       0.22753000       0.45984190
   208  C          0.31407000       0.77247000       0.54015810
   209  H          0.65091500       0.15619500       0.45693400
   210  H          0.34908500       0.84380500       0.54306600
   211  C          0.06063000       0.53902000       0.31972000
   212  C          0.93937000       0.46098000       0.68028000
   213  H          0.07775100       0.60413100       0.30748300
   214  H          0.92224900       0.39586900       0.69251700
   215  C          0.96673000       0.50382000       0.36059190
   216  C          0.03327000       0.49618000       0.63940810
   217  H          0.92050100       0.54396300       0.37463900
   218  H          0.07949900       0.45603700       0.62536100
   219  C          0.93953000       0.41002000       0.38126170
   220  C          0.06047000       0.58998000       0.61873830
   221  C          0.01193000       0.35582000       0.35789180
   222  C         -0.01193000       0.64418000       0.64210820
   223  H         -0.00151400       0.29133200       0.37071800
   224  H          0.00151400       0.70866800       0.62928200
   225  C          0.10323000       0.39692000       0.31595180
   226  C          0.89677000       0.60308000       0.68404820
   227  H          0.15033300       0.35822100       0.30030000
   228  H          0.84966700       0.64177900       0.69970000
