data_JAKPIV
_symmetry_space_group_name_H-M    'P1'
_symmetry_Int_Tables_number       1
loop_
_symmetry_equiv_pos_site_id
_symmetry_equiv_pos_as_xyz
1 x,y,z
_cell_length_a                   5.45232
_cell_length_b                   7.95562
_cell_length_c                   35.145311
_cell_angle_alpha                90.0
_cell_angle_beta                 90.0
_cell_angle_gamma                90.0
loop_
_atom_site_label
_atom_site_type_symbol
_atom_site_fract_x
_atom_site_fract_y
_atom_site_fract_z
     1  O          0.04037170       0.08440110       0.07622200
     2  O          0.45962830       0.41559890       0.57622200
     3  O          0.95962830       0.08440110       0.42377800
     4  O          0.54037170       0.41559890       0.92377800
     5  O          0.95962830       0.91559890       0.92377800
     6  O          0.54037170       0.58440110       0.42377800
     7  O          0.04037170       0.91559890       0.57622200
     8  O          0.45962830       0.58440110       0.07622200
     9  C          0.20132000       0.09407130       0.01182300
    10  C          0.29868000       0.40592870       0.51182300
    11  C          0.79868000       0.09407130       0.48817700
    12  C          0.70132000       0.40592870       0.98817700
    13  C          0.79868000       0.90592870       0.98817700
    14  C          0.70132000       0.59407130       0.48817700
    15  C          0.20132000       0.90592870       0.51182300
    16  C          0.29868000       0.59407130       0.01182300
    17  C          0.82428000       0.95049870       0.02621300
    18  C          0.67572000       0.54950130       0.52621300
    19  C          0.17572000       0.95049870       0.47378700
    20  C          0.32428000       0.54950130       0.97378700
    21  C          0.17572000       0.04950130       0.97378700
    22  C          0.32428000       0.45049870       0.47378700
    23  C          0.82428000       0.04950130       0.52621300
    24  C          0.67572000       0.45049870       0.02621300
    25  C          0.02522000       0.04398130       0.03822300
    26  C          0.47478000       0.45601870       0.53822300
    27  C         -0.02522000       0.04398130       0.46177700
    28  C          0.52522000       0.45601870       0.96177700
    29  C         -0.02522000       0.95601870       0.96177700
    30  C          0.52522000       0.54398130       0.46177700
    31  C          0.02522000       0.95601870       0.53822300
    32  C          0.47478000       0.54398130       0.03822300
    33  H          0.70280000       0.91478200       0.04484000
    34  H          0.79720000       0.58521800       0.54484000
    35  H          0.29720000       0.91478200       0.45516000
    36  H          0.20280000       0.58521800       0.95516000
    37  H          0.29720000       0.08521800       0.95516000
    38  H          0.20280000       0.41478200       0.45516000
    39  H          0.70280000       0.08521800       0.54484000
    40  H          0.79720000       0.41478200       0.04484000
    41  H          0.34220000       0.16151600       0.01984000
    42  H          0.15780000       0.33848400       0.51984000
    43  H          0.65780000       0.16151600       0.48016000
    44  H          0.84220000       0.33848400       0.98016000
    45  H          0.65780000       0.83848400       0.98016000
    46  H          0.84220000       0.66151600       0.48016000
    47  H          0.34220000       0.83848400       0.51984000
    48  H          0.15780000       0.66151600       0.01984000
    49  H          0.19440000       0.12830000       0.08245000
    50  H          0.30560000       0.37170000       0.58245000
    51  H          0.80560000       0.12830000       0.41755000
    52  H          0.69440000       0.37170000       0.91755000
    53  H          0.80560000       0.87170000       0.91755000
    54  H          0.69440000       0.62830000       0.41755000
    55  H          0.19440000       0.87170000       0.58245000
    56  H          0.30560000       0.62830000       0.08245000
    57  O         -0.00000000       0.43921140       0.25000000
    58  O          0.50000000       0.06078860       0.75000000
    59  O          0.00000000       0.56078860       0.75000000
    60  O          0.50000000       0.93921140       0.25000000
    61  C          0.18712000       0.69940130       0.16853300
    62  C          0.31288000       0.80059870       0.66853300
    63  C          0.81288000       0.69940130       0.33146700
    64  C          0.68712000       0.80059870       0.83146700
    65  C          0.81288000       0.30059870       0.83146700
    66  C          0.68712000       0.19940130       0.33146700
    67  C          0.18712000       0.30059870       0.66853300
    68  C          0.31288000       0.19940130       0.16853300
    69  N          0.02252000       0.71171130       0.10380300
    70  N          0.47748000       0.78828870       0.60380300
    71  N         -0.02252000       0.71171130       0.39619700
    72  N          0.52252000       0.78828870       0.89619700
    73  N         -0.02252000       0.28828870       0.89619700
    74  N          0.52252000       0.21171130       0.39619700
    75  N          0.02252000       0.28828870       0.60380300
    76  N          0.47748000       0.21171130       0.10380300
    77  C          0.81968000       0.54706140       0.15348300
    78  C          0.68032000       0.95293860       0.65348300
    79  C          0.18032000       0.54706140       0.34651700
    80  C          0.31968000       0.95293860       0.84651700
    81  C          0.18032000       0.45293860       0.84651700
    82  C          0.31968000       0.04706140       0.34651700
    83  C          0.81968000       0.45293860       0.65348300
    84  C          0.68032000       0.04706140       0.15348300
    85  C          0.81348000       0.48260140       0.19014300
    86  C          0.68652000       0.01739860       0.69014300
    87  C          0.18652000       0.48260140       0.30985700
    88  C          0.31348000       0.01739860       0.80985700
    89  C          0.18652000       0.51739860       0.80985700
    90  C          0.31348000      -0.01739860       0.30985700
    91  C          0.81348000       0.51739860       0.69014300
    92  C          0.68652000      -0.01739860       0.19014300
    93  C          0.18102000       0.63607140       0.20535300
    94  C          0.31898000       0.86392860       0.70535300
    95  C          0.81898000       0.63607140       0.29464700
    96  C          0.68102000       0.86392860       0.79464700
    97  C          0.81898000       0.36392860       0.79464700
    98  C          0.68102000       0.13607140       0.29464700
    99  C          0.18102000       0.36392860       0.70535300
   100  C          0.31898000       0.13607140       0.20535300
   101  C          0.00762000       0.65425130       0.14222300
   102  C          0.49238000       0.84574870       0.64222300
   103  C         -0.00762000       0.65425130       0.35777700
   104  C          0.50762000       0.84574870       0.85777700
   105  C         -0.00762000       0.34574870       0.85777700
   106  C          0.50762000       0.15425130       0.35777700
   107  C          0.00762000       0.34574870       0.64222300
   108  C          0.49238000       0.15425130       0.14222300
   109  C         -0.00482000       0.52569130       0.21569300
   110  C          0.50482000       0.97430870       0.71569300
   111  C          0.00482000       0.52569130       0.28430700
   112  C          0.49518000       0.97430870       0.78430700
   113  C          0.00482000       0.47430870       0.78430700
   114  C          0.49518000       0.02569130       0.28430700
   115  C         -0.00482000       0.47430870       0.71569300
   116  C          0.50482000       0.02569130       0.21569300
   117  H          0.31730000       0.77511900       0.16134000
   118  H          0.18270000       0.72488100       0.66134000
   119  H          0.68270000       0.77511900       0.33866000
   120  H          0.81730000       0.72488100       0.83866000
   121  H          0.68270000       0.22488100       0.83866000
   122  H          0.81730000       0.27511900       0.33866000
   123  H          0.31730000       0.22488100       0.66134000
   124  H          0.18270000       0.27511900       0.16134000
   125  H          0.68770000       0.51901900       0.13574000
   126  H          0.81230000       0.98098100       0.63574000
   127  H          0.31230000       0.51901900       0.36426000
   128  H          0.18770000       0.98098100       0.86426000
   129  H          0.31230000       0.48098100       0.86426000
   130  H          0.18770000       0.01901900       0.36426000
   131  H          0.68770000       0.48098100       0.63574000
   132  H          0.81230000       0.01901900       0.13574000
   133  H          0.68470000       0.40741900       0.19804000
   134  H          0.81530000       0.09258100       0.69804000
   135  H          0.31530000       0.40741900       0.30196000
   136  H          0.18470000       0.09258100       0.80196000
   137  H          0.31530000       0.59258100       0.80196000
   138  H          0.18470000       0.90741900       0.30196000
   139  H          0.68470000       0.59258100       0.69804000
   140  H          0.81530000       0.90741900       0.19804000
   141  H          0.30930000       0.66581800       0.22364000
   142  H          0.19070000       0.83418200       0.72364000
   143  H          0.69070000       0.66581800       0.27636000
   144  H          0.80930000       0.83418200       0.77636000
   145  H          0.69070000       0.33418200       0.77636000
   146  H          0.80930000       0.16581800       0.27636000
   147  H          0.30930000       0.33418200       0.72364000
   148  H          0.19070000       0.16581800       0.22364000
   149  H          0.87770000       0.69320000       0.09095000
   150  H          0.62230000       0.80680000       0.59095000
   151  H          0.12230000       0.69320000       0.40905000
   152  H          0.37770000       0.80680000       0.90905000
   153  H          0.12230000       0.30680000       0.90905000
   154  H          0.37770000       0.19320000       0.40905000
   155  H          0.87770000       0.30680000       0.59095000
   156  H          0.62230000       0.19320000       0.09095000
   157  H          0.05430000       0.82120000       0.10205000
   158  H          0.44570000       0.67880000       0.60205000
   159  H          0.94570000       0.82120000       0.39795000
   160  H          0.55430000       0.67880000       0.89795000
   161  H          0.94570000       0.17880000       0.89795000
   162  H          0.55430000       0.32120000       0.39795000
   163  H          0.05430000       0.17880000       0.60205000
   164  H          0.44570000       0.32120000       0.10205000
