data_JALGAE
_symmetry_space_group_name_H-M    'P1'
_symmetry_Int_Tables_number       1
loop_
_symmetry_equiv_pos_site_id
_symmetry_equiv_pos_as_xyz
1 x,y,z
_cell_length_a                   11.40857
_cell_length_b                   12.822311
_cell_length_c                   13.375113
_cell_angle_alpha                79.5537
_cell_angle_beta                 68.2765
_cell_angle_gamma                84.8766
loop_
_atom_site_label
_atom_site_type_symbol
_atom_site_fract_x
_atom_site_fract_y
_atom_site_fract_z
     1  P          0.45878000       0.20811000       0.69999000
     2  P          0.54122000       0.79189000       0.30001000
     3  F          0.54362000       0.11416000       0.69928900
     4  F          0.45638000       0.88584000       0.30071100
     5  F          0.51288800       0.25161000       0.76674000
     6  F          0.48711200       0.74839000       0.23326000
     7  F          0.37532000       0.29965000       0.70221000
     8  F          0.62468000       0.70035000       0.29779000
     9  F          0.41221000       0.15447000       0.63206000
    10  F          0.58779000       0.84553000       0.36794000
    11  F          0.35724000       0.14715000       0.80136000
    12  F          0.64276000       0.85285000       0.19864000
    13  F          0.55885000       0.26784000       0.59426000
    14  F          0.44115000       0.73216000       0.40574000
    15  C          0.92894000       0.01005000       0.02864000
    16  C          0.07106000       0.98995000       0.97136000
    17  C          0.90014000       0.07745000       0.11854000
    18  C          0.09986000       0.92255000       0.88146000
    19  C          0.75974000       0.08564000       0.17874000
    20  C          0.24026000       0.91436000       0.82126000
    21  N          0.72735000       0.14594000       0.27183000
    22  N          0.27265000       0.85406000       0.72817000
    23  C          0.59544000       0.13014000       0.35584000
    24  C          0.40456000       0.86986000       0.64416000
    25  C          0.49624000       0.19024000       0.31924000
    26  C          0.50376000       0.80976000       0.68076000
    27  C          0.45343000       0.15654000       0.24604000
    28  C          0.54657000       0.84346000       0.75396000
    29  C          0.36313000       0.21345000       0.21154000
    30  C          0.63687000       0.78655000       0.78846000
    31  C          0.31353000       0.30574000       0.25495000
    32  C          0.68647000       0.69426000       0.74505000
    33  C          0.35193000       0.34164000       0.33035000
    34  C          0.64807000       0.65836000       0.66965000
    35  C          0.44243000       0.28404000       0.36114000
    36  C          0.55757000       0.71596000       0.63886000
    37  C          0.31982000       0.17686000       0.12835000
    38  C          0.68018000       0.82314000       0.87165000
    39  C          0.26717900       0.26141100       0.06891300
    40  C          0.73282100       0.73858900       0.93108700
    41  C          0.21698200       0.09611600       0.19151100
    42  C          0.78301800       0.90388400       0.80848900
    43  C          0.41998800       0.11721300       0.05389000
    44  C          0.58001200       0.88278700       0.94611000
    45  C          0.28931000       0.44255000       0.37786000
    46  C          0.71069000       0.55745000       0.62214000
    47  C          0.30468300       0.53367000       0.28241000
    48  C          0.69531700       0.46633000       0.71759000
    49  C          0.15579000       0.42361000       0.44901400
    50  C          0.84421000       0.57639000       0.55098600
    51  C          0.35989000       0.47966000       0.44268000
    52  C          0.64011000       0.52034000       0.55732000
    53  H          0.89394000       0.04555000       0.97496000
    54  H          0.10606000       0.95445000       0.02504000
    55  H          0.88794000       0.94235000       0.06004000
    56  H          0.11206000       0.05765000       0.93996000
    57  H          0.94104000       0.04555000       0.16914000
    58  H          0.05896000       0.95445000       0.83086000
    59  H          0.93334000       0.14775000       0.08674000
    60  H          0.06666000       0.85225000       0.91326000
    61  H          0.72004000       0.12084000       0.12844000
    62  H          0.27996000       0.87916000       0.87156000
    63  H          0.72634000       0.01494000       0.20634000
    64  H          0.27366000       0.98506000       0.79366000
    65  H          0.73685000       0.21544000       0.24473000
    66  H          0.26315000       0.78456000       0.75527000
    67  H          0.78295000       0.12674000       0.30553000
    68  H          0.21705000       0.87326000       0.69447000
    69  H          0.57714000       0.05524000       0.37244000
    70  H          0.42286000       0.94476000       0.62756000
    71  H          0.59204000       0.15254000       0.42234000
    72  H          0.40796000       0.84746000       0.57766000
    73  H          0.48663000       0.09384000       0.21954000
    74  H          0.51337000       0.90616000       0.78046000
    75  H          0.25223000       0.34494000       0.23285000
    76  H          0.74777000       0.65506000       0.76715000
    77  H          0.46943000       0.30684000       0.41104000
    78  H          0.53057000       0.69316000       0.58896000
    79  H          0.20217900       0.29891100       0.11951300
    80  H          0.79782100       0.70108900       0.88048700
    81  H          0.23197900       0.23191100       0.02541300
    82  H          0.76802100       0.76808900       0.97458700
    83  H          0.33237900       0.30951100       0.02231300
    84  H          0.66762100       0.69048900       0.97768700
    85  H          0.24958200       0.03891600       0.23171100
    86  H          0.75041800       0.96108400       0.76828900
    87  H          0.19018200       0.06871600       0.14141100
    88  H          0.80981800       0.93128400       0.85858900
    89  H          0.14648200       0.12981600       0.24111100
    90  H          0.85351800       0.87018400       0.75888900
    91  H          0.45308800       0.06171300       0.09549000
    92  H          0.54691200       0.93828700       0.90451000
    93  H          0.48638800       0.16421300       0.00729000
    94  H          0.51361200       0.83578700      -0.00729000
    95  H          0.38588800       0.08671300       0.01029000
    96  H          0.61411200       0.91328700      -0.01029000
    97  H          0.39268300       0.54247000       0.23921000
    98  H          0.60731700       0.45753000       0.76079000
    99  H          0.26978300       0.59807000       0.31021000
   100  H          0.73021700       0.40193000       0.68979000
   101  H          0.26108300       0.51757000       0.23811000
   102  H          0.73891700       0.48243000       0.76189000
   103  H          0.15189000       0.36601000       0.50701400
   104  H          0.84811000       0.63399000       0.49298600
   105  H          0.11019000       0.40591000       0.40701400
   106  H          0.88981000       0.59409000       0.59298600
   107  H          0.11889000       0.48651000       0.47911400
   108  H          0.88111000       0.51349000       0.52088600
   109  H          0.44649000       0.49196000       0.39658000
   110  H          0.55351000       0.50804000       0.60342000
   111  H          0.35629000       0.42596000       0.50398000
   112  H          0.64371000       0.57404000       0.49602000
   113  H          0.32119000       0.54416000       0.46818000
   114  H          0.67881000       0.45584000       0.53182000
   115  C         -0.00331400       0.29428000       0.84771000
   116  C          0.00331400       0.70572000       0.15229000
   117  C          0.86908500       0.30198000       0.89412000
   118  C          0.13091500       0.69802000       0.10588000
   119  C          0.79288900       0.25147000       0.85953000
   120  C          0.20711100       0.74853000       0.14047000
   121  O          0.82841000       0.36717000       0.97383000
   122  O          0.17159000       0.63283000       0.02617000
   123  C          0.70358700       0.37059000       0.03638000
   124  C          0.29641300       0.62941000       0.96362000
   125  C          0.68798800       0.43167000       0.12818000
   126  C          0.31201200       0.56833000       0.87182000
   127  O          0.75324000       0.37624000       0.19305000
   128  O          0.24676000       0.62376000       0.80695000
   129  C          0.76848500       0.43658000       0.26761000
   130  C          0.23151500       0.56342000       0.73239000
   131  C          0.86728600       0.38311300       0.30891300
   132  C          0.13271400       0.61688700       0.69108700
   133  O          0.82523000       0.28517000       0.37036000
   134  O          0.17477000       0.71483000       0.62964000
   135  C          0.89738800       0.23351400       0.43661200
   136  C          0.10261200       0.76648600       0.56338800
   137  C          0.83948800       0.13421300       0.49738000
   138  C          0.16051200       0.86578700       0.50262000
   139  O          0.85415000       0.06455000       0.42324000
   140  O          0.14585000       0.93545000       0.57676000
   141  C          0.81559000       0.96029000       0.48177000
   142  C          0.18441000       0.03971000       0.51823000
   143  C          0.84179000       0.88582000       0.40288000
   144  C          0.15821000       0.11418000       0.59712000
   145  O          0.97623000       0.87324000       0.35425000
   146  O          0.02377000       0.12676000       0.64575000
   147  C          0.02231200       0.81273000       0.27157000
   148  C          0.97768800       0.18727000       0.72843000
   149  C          0.05411100       0.23708000       0.76282000
   150  C          0.94588900       0.76292000       0.23718000
   151  C          0.84988900       0.19357000       0.77563000
   152  C          0.15011100       0.80643000       0.22437000
   153  H          0.04651400       0.32798000       0.87321000
   154  H          0.95348600       0.67202000       0.12679000
   155  H          0.70538900       0.25617000       0.89173000
   156  H          0.29461100       0.74383000       0.10827000
   157  H          0.67278700       0.29919000       0.06618000
   158  H          0.32721300       0.70081000       0.93382000
   159  H          0.65568700       0.40569000      -0.00748000
   160  H          0.34431300       0.59431000       0.00748000
   161  H          0.72158800       0.50217000       0.09808000
   162  H          0.27841200       0.49783000       0.90192000
   163  H          0.59928800       0.43877000       0.17198000
   164  H          0.40071200       0.56123000       0.82802000
   165  H          0.68928500       0.44108000       0.32811000
   166  H          0.31071500       0.55892000       0.67189000
   167  H          0.79358500       0.50798000       0.23101000
   168  H          0.20641500       0.49202000       0.76899000
   169  H          0.94458600       0.37371300       0.24801300
   170  H          0.05541400       0.62628700       0.75198700
   171  H          0.88508600       0.42681300       0.35341300
   172  H          0.11491400       0.57318700       0.64658700
   173  H          0.98368800       0.22031400       0.39011200
   174  H          0.01631200       0.77968600       0.60988800
   175  H          0.89868800       0.27921400       0.48651200
   176  H          0.10131200       0.72078600       0.51348800
   177  H          0.79938800       0.11911300       0.57268000
   178  H          0.20061200       0.88088700       0.42732000
   179  H          0.72609000       0.96159000       0.52517000
   180  H          0.27391000       0.03841000       0.47483000
   181  H          0.86129000       0.93699000       0.53057000
   182  H          0.13871000       0.06301000       0.46943000
   183  H          0.80409000       0.81792000       0.43988000
   184  H          0.19591000       0.18208000       0.56012000
   185  H          0.80669000       0.91402000       0.34738000
   186  H          0.19331000       0.08598000       0.65262000
   187  H          0.14151100       0.23248000       0.73022000
   188  H          0.85848900       0.76752000       0.26978000
   189  H          0.80018900       0.15857000       0.75123000
   190  H          0.19981100       0.84143000       0.24877000
