data_JAMZEG
_symmetry_space_group_name_H-M    'P1'
_symmetry_Int_Tables_number       1
loop_
_symmetry_equiv_pos_site_id
_symmetry_equiv_pos_as_xyz
1 x,y,z
_cell_length_a                   5.41421
_cell_length_b                   13.02703
_cell_length_c                   15.79764
_cell_angle_alpha                81.501811
_cell_angle_beta                 85.906812
_cell_angle_gamma                79.94561
loop_
_atom_site_label
_atom_site_type_symbol
_atom_site_fract_x
_atom_site_fract_y
_atom_site_fract_z
     1  Cl         0.87575140       0.07685600       0.33070400
     2  Cl         0.12424860       0.92314400       0.66929600
     3  N          0.20812000       0.30831900       0.65305800
     4  N          0.79188000       0.69168100       0.34694200
     5  O          0.23233000       0.44507900       0.54769900
     6  O          0.76767000       0.55492100       0.45230100
     7  O          0.40067000       0.45109100       0.86266900
     8  O          0.59933000       0.54890900       0.13733100
     9  O          0.26082000       0.97750900       0.94045800
    10  O          0.73918000       0.02249100       0.05954200
    11  O          0.00043000       0.03297110       0.83585100
    12  O         -0.00043000       0.96702890       0.16414900
    13  C          0.33653000       0.22454110       0.71087100
    14  C          0.66347000       0.77545890       0.28912900
    15  C          0.20653000       0.22085110       0.78758100
    16  C          0.79347000       0.77914890       0.21241900
    17  C         -0.01153000       0.30286110       0.78119100
    18  C          0.01153000       0.69713890       0.21880900
    19  C          0.79187000       0.33132120       0.83976100
    20  C          0.20813000       0.66867880       0.16023900
    21  C          0.60247000       0.41318120       0.81187110
    22  C          0.39753000       0.58681880       0.18812890
    23  C          0.60777000       0.46396120       0.72728110
    24  C          0.39223000       0.53603880       0.27271890
    25  C          0.80287000       0.43825120       0.66961110
    26  C          0.19713000       0.56174880       0.33038890
    27  C         -0.00383000       0.35713110       0.69802100
    28  C          0.00383000       0.64286890       0.30197900
    29  C          0.29173000       0.35177130       0.57226100
    30  C          0.70827000       0.64822870       0.42773900
    31  C          0.43963000       0.28044130       0.51503100
    32  C          0.56037000       0.71955870       0.48496900
    33  C          0.36374000       0.18740150       0.50281120
    34  C          0.63626000       0.81259850       0.49718880
    35  C          0.49394000       0.12630170       0.44420130
    36  C          0.50606000       0.87369830       0.55579870
    37  C          0.70524000       0.15714180       0.40072120
    38  C          0.29476000       0.84285820       0.59927880
    39  C          0.78114000       0.24990190       0.41107130
    40  C          0.21886000       0.75009810       0.58892870
    41  C          0.64484000       0.31271160       0.46686120
    42  C          0.35516000       0.68728840       0.53313880
    43  C          0.58173000       0.15970140       0.68906120
    44  C          0.41827000       0.84029860       0.31093880
    45  H          0.69110000       0.20460000       0.65850000
    46  H          0.30890000       0.79540000       0.34150000
    47  H          0.55460000       0.10900000       0.65390000
    48  H          0.44540000       0.89100000       0.34610000
    49  H          0.65740000       0.12390000       0.74080000
    50  H          0.34260000       0.87610000       0.25920000
    51  C          0.27713000       0.14561120       0.86703110
    52  C          0.72287000       0.85438880       0.13296890
    53  C          0.16373000       0.04735110       0.87772900
    54  C          0.83627000       0.95264890       0.12227100
    55  C          0.36866000       0.39830160       0.94565130
    56  C          0.63134000       0.60169840       0.05434870
    57  H          0.37290000       0.32480000       0.94310000
    58  H          0.62710000       0.67520000       0.05690000
    59  H          0.20980000       0.42730000       0.97080000
    60  H          0.79020000       0.57270000       0.02920000
    61  H          0.50130000       0.40660000       0.98000000
    62  H          0.49870000       0.59340000       0.02000000
    63  H          0.22240000       0.17781600       0.91881300
    64  H          0.77760000       0.82218400       0.08118700
    65  H          0.79870000       0.47571500       0.61071300
    66  H          0.20130000       0.52428500       0.38928700
    67  H          0.46160000       0.52021500       0.70911200
    68  H          0.53840000       0.47978500       0.29088800
    69  H          0.78970000       0.29581500       0.89711200
    70  H          0.21030000       0.70418500       0.10288800
    71  H          0.45640000       0.12521700       0.87081400
    72  H          0.54360000       0.87478300       0.12918600
    73  H          0.19540000       0.91880000       0.94241500
    74  H          0.80460000       0.08120000       0.05758500
    75  H          0.20940000       0.16971700       0.53521400
    76  H          0.79060000       0.83028300       0.46478600
    77  H          0.43540000       0.06551800       0.43421400
    78  H          0.56460000       0.93448200       0.56578600
    79  H          0.69640000       0.37971900       0.47411400
    80  H          0.30360000       0.62028100       0.52588600
    81  H          0.92950000       0.27161900       0.37861600
    82  H          0.07050000       0.72838100       0.62138400
    83  O          0.12193000       0.79274100       0.95867800
    84  O          0.87807000       0.20725900       0.04132200
    85  N         -0.01503000       0.76745900       0.90143900
    86  N          0.01503000       0.23254100       0.09856100
    87  C          0.06374000       0.67701860       0.86743130
    88  C          0.93626000       0.32298140       0.13256870
    89  C          0.92356000       0.64753820       0.80974150
    90  C          0.07644000       0.35246180       0.19025850
    91  C          0.70206000       0.71086810       0.78453160
    92  C          0.29794000       0.28913190       0.21546840
    93  C          0.62656000       0.80226820       0.81970160
    94  C          0.37344000       0.19773180       0.18029840
    95  C          0.76787000       0.82978850       0.87826130
    96  C          0.23213000       0.17021150       0.12173870
    97  H          0.21740000       0.63688400       0.88791300
    98  H          0.78260000       0.36311600       0.11208700
    99  H          0.72760000       0.89098200       0.90331400
   100  H          0.27240000       0.10901800       0.09668600
   101  H          0.59750000       0.69118100       0.74391600
   102  H          0.40250000       0.30881900       0.25608400
   103  H          0.48050000       0.84778100       0.80611500
   104  H          0.51950000       0.15221900       0.19388500
   105  H          0.97760000       0.58438100       0.78821500
   106  H          0.02240000       0.41561900       0.21178500
