data_JAPROI
_symmetry_space_group_name_H-M    'P1'
_symmetry_Int_Tables_number       1
loop_
_symmetry_equiv_pos_site_id
_symmetry_equiv_pos_as_xyz
1 x,y,z
_cell_length_a                   14.065211
_cell_length_b                   15.617614
_cell_length_c                   11.501511
_cell_angle_alpha                90.0
_cell_angle_beta                 99.6357
_cell_angle_gamma                90.0
loop_
_atom_site_label
_atom_site_type_symbol
_atom_site_fract_x
_atom_site_fract_y
_atom_site_fract_z
     1  I          0.50000000       0.50000000       0.50000000
     2  I          0.00000000      -0.00000000       0.50000000
     3  I          0.50000000       0.50000000       0.00000000
     4  I          0.00000000       0.00000000       0.00000000
     5  I          0.49688300       0.68493300       0.53228400
     6  I         -0.00311700       0.18493300       0.53228400
     7  I          0.50311700       0.68493300       0.96771600
     8  I          0.00311700       0.18493300       0.96771600
     9  I          0.50311700       0.31506700       0.46771600
    10  I          0.00311700       0.81506700       0.46771600
    11  I          0.49688300       0.31506700       0.03228400
    12  I         -0.00311700       0.81506700       0.03228400
    13  N          0.67793000       0.86533000       0.59204000
    14  N          0.17793000       0.36533000       0.59204000
    15  N          0.32207000       0.86533000       0.90796000
    16  N          0.82207000       0.36533000       0.90796000
    17  N          0.32207000       0.13467000       0.40796000
    18  N          0.82207000       0.63467000       0.40796000
    19  N          0.67793000       0.13467000       0.09204000
    20  N          0.17793000       0.63467000       0.09204000
    21  H          0.65030000       0.88730000       0.52430000
    22  H          0.15030000       0.38730000       0.52430000
    23  H          0.34970000       0.88730000       0.97570000
    24  H          0.84970000       0.38730000       0.97570000
    25  H          0.34970000       0.11270000       0.47570000
    26  H          0.84970000       0.61270000       0.47570000
    27  H          0.65030000       0.11270000       0.02430000
    28  H          0.15030000       0.61270000       0.02430000
    29  C          0.62564000       0.86113000       0.68164000
    30  C          0.12564000       0.36113000       0.68164000
    31  C          0.37436000       0.86113000       0.81836000
    32  C          0.87436000       0.36113000       0.81836000
    33  C          0.37436000       0.13887000       0.31836000
    34  C          0.87436000       0.63887000       0.31836000
    35  C          0.62564000       0.13887000       0.18164000
    36  C          0.12564000       0.63887000       0.18164000
    37  O          0.53993000       0.89132000       0.66323000
    38  O          0.03993000       0.39132000       0.66323000
    39  O          0.46007000       0.89132000       0.83677000
    40  O          0.96007000       0.39132000       0.83677000
    41  O          0.46007000       0.10868000       0.33677000
    42  O          0.96007000       0.60868000       0.33677000
    43  O          0.53993000       0.10868000       0.16323000
    44  O          0.03993000       0.60868000       0.16323000
    45  C          0.67224000       0.82243000       0.78755000
    46  C          0.17224000       0.32243000       0.78755000
    47  C          0.32776000       0.82243000       0.71245000
    48  C          0.82776000       0.32243000       0.71245000
    49  C          0.32776000       0.17757000       0.21245000
    50  C          0.82776000       0.67757000       0.21245000
    51  C          0.67224000       0.17757000       0.28755000
    52  C          0.17224000       0.67757000       0.28755000
    53  H          0.63830000       0.81500000       0.85160000
    54  H          0.13830000       0.31500000       0.85160000
    55  H          0.36170000       0.81500000       0.64840000
    56  H          0.86170000       0.31500000       0.64840000
    57  H          0.36170000       0.18500000       0.14840000
    58  H          0.86170000       0.68500000       0.14840000
    59  H          0.63830000       0.18500000       0.35160000
    60  H          0.13830000       0.68500000       0.35160000
    61  C          0.76534000       0.79574000       0.79745000
    62  C          0.26534000       0.29574000       0.79745000
    63  C          0.23466000       0.79574000       0.70255000
    64  C          0.73466000       0.29574000       0.70255000
    65  C          0.23466000       0.20426000       0.20255000
    66  C          0.73466000       0.70426000       0.20255000
    67  C          0.76534000       0.20426000       0.29745000
    68  C          0.26534000       0.70426000       0.29745000
    69  H          0.79650000       0.77170000       0.86970000
    70  H          0.29650000       0.27170000       0.86970000
    71  H          0.20350000       0.77170000       0.63030000
    72  H          0.70350000       0.27170000       0.63030000
    73  H          0.20350000       0.22830000       0.13030000
    74  H          0.70350000       0.72830000       0.13030000
    75  H          0.79650000       0.22830000       0.36970000
    76  H          0.29650000       0.72830000       0.36970000
    77  C          0.81574000       0.80324000       0.70315000
    78  C          0.31574000       0.30324000       0.70315000
    79  C          0.18426000       0.80324000       0.79685000
    80  C          0.68426000       0.30324000       0.79685000
    81  C          0.18426000       0.19676000       0.29685000
    82  C          0.68426000       0.69676000       0.29685000
    83  C          0.81574000       0.19676000       0.20315000
    84  C          0.31574000       0.69676000       0.20315000
    85  H          0.88070000       0.78460000       0.71010000
    86  H          0.38070000       0.28460000       0.71010000
    87  H          0.11930000       0.78460000       0.78990000
    88  H          0.61930000       0.28460000       0.78990000
    89  H          0.11930000       0.21540000       0.28990000
    90  H          0.61930000       0.71540000       0.28990000
    91  H          0.88070000       0.21540000       0.21010000
    92  H          0.38070000       0.71540000       0.21010000
    93  C          0.76924000       0.83754000       0.60145000
    94  C          0.26924000       0.33754000       0.60145000
    95  C          0.23076000       0.83754000       0.89855000
    96  C          0.73076000       0.33754000       0.89855000
    97  C          0.23076000       0.16246000       0.39855000
    98  C          0.73076000       0.66246000       0.39855000
    99  C          0.76924000       0.16246000       0.10145000
   100  C          0.26924000       0.66246000       0.10145000
   101  H          0.80160000       0.84210000       0.53560000
   102  H          0.30160000       0.34210000       0.53560000
   103  H          0.19840000       0.84210000       0.96440000
   104  H          0.69840000       0.34210000       0.96440000
   105  H          0.19840000       0.15790000       0.46440000
   106  H          0.69840000       0.65790000       0.46440000
   107  H          0.80160000       0.15790000       0.03560000
   108  H          0.30160000       0.65790000       0.03560000
   109  N          0.59893000       0.91823000       0.16943000
   110  N          0.09893000       0.41823000       0.16943000
   111  N          0.40107000       0.91823000       0.33057000
   112  N          0.90107000       0.41823000       0.33057000
   113  N          0.40107000       0.08177000       0.83057000
   114  N          0.90107000       0.58177000       0.83057000
   115  N          0.59893000       0.08177000       0.66943000
   116  N          0.09893000       0.58177000       0.66943000
   117  C          0.64964000       0.92413000       0.28164000
   118  C          0.14964000       0.42413000       0.28164000
   119  C          0.35036000       0.92413000       0.21836000
   120  C          0.85036000       0.42413000       0.21836000
   121  C          0.35036000       0.07587000       0.71836000
   122  C          0.85036000       0.57587000       0.71836000
   123  C          0.64964000       0.07587000       0.78164000
   124  C          0.14964000       0.57587000       0.78164000
   125  O          0.60143000       0.92073000       0.36683000
   126  O          0.10143000       0.42073000       0.36683000
   127  O          0.39857000       0.92073000       0.13317000
   128  O          0.89857000       0.42073000       0.13317000
   129  O          0.39857000       0.07927000       0.63317000
   130  O          0.89857000       0.57927000       0.63317000
   131  O          0.60143000       0.07927000       0.86683000
   132  O          0.10143000       0.57927000       0.86683000
   133  C          0.75044000       0.93244000       0.29265000
   134  C          0.25044000       0.43244000       0.29265000
   135  C          0.24956000       0.93244000       0.20735000
   136  C          0.74956000       0.43244000       0.20735000
   137  C          0.24956000       0.06756000       0.70735000
   138  C          0.74956000       0.56756000       0.70735000
   139  C          0.75044000       0.06756000       0.79265000
   140  C          0.25044000       0.56756000       0.79265000
   141  H          0.78820000       0.93900000       0.36860000
   142  H          0.28820000       0.43900000       0.36860000
   143  H          0.21180000       0.93900000       0.13140000
   144  H          0.71180000       0.43900000       0.13140000
   145  H          0.21180000       0.06100000       0.63140000
   146  H          0.71180000       0.56100000       0.63140000
   147  H          0.78820000       0.06100000       0.86860000
   148  H          0.28820000       0.56100000       0.86860000
   149  C          0.79454000       0.93104000       0.19595000
   150  C          0.29454000       0.43104000       0.19595000
   151  C          0.20546000       0.93104000       0.30405000
   152  C          0.70546000       0.43104000       0.30405000
   153  C          0.20546000       0.06896000       0.80405000
   154  C          0.70546000       0.56896000       0.80405000
   155  C          0.79454000       0.06896000       0.69595000
   156  C          0.29454000       0.56896000       0.69595000
   157  H          0.86280000       0.93430000       0.20530000
   158  H          0.36280000       0.43430000       0.20530000
   159  H          0.13720000       0.93430000       0.29470000
   160  H          0.63720000       0.43430000       0.29470000
   161  H          0.13720000       0.06570000       0.79470000
   162  H          0.63720000       0.56570000       0.79470000
   163  H          0.86280000       0.06570000       0.70530000
   164  H          0.36280000       0.56570000       0.70530000
   165  C          0.73964000       0.92474000       0.08215000
   166  C          0.23964000       0.42474000       0.08215000
   167  C          0.26036000       0.92474000       0.41785000
   168  C          0.76036000       0.42474000       0.41785000
   169  C          0.26036000       0.07526000       0.91785000
   170  C          0.76036000       0.57526000       0.91785000
   171  C          0.73964000       0.07526000       0.58215000
   172  C          0.23964000       0.57526000       0.58215000
   173  H          0.76990000       0.92470000       0.01420000
   174  H          0.26990000       0.42470000       0.01420000
   175  H          0.23010000       0.92470000       0.48580000
   176  H          0.73010000       0.42470000       0.48580000
   177  H          0.23010000       0.07530000       0.98580000
   178  H          0.73010000       0.57530000       0.98580000
   179  H          0.76990000       0.07530000       0.51420000
   180  H          0.26990000       0.57530000       0.51420000
   181  C          0.64294000       0.91884000       0.07174000
   182  C          0.14294000       0.41884000       0.07174000
   183  C          0.35706000       0.91884000       0.42826000
   184  C          0.85706000       0.41884000       0.42826000
   185  C          0.35706000       0.08116000       0.92826000
   186  C          0.85706000       0.58116000       0.92826000
   187  C          0.64294000       0.08116000       0.57174000
   188  C          0.14294000       0.58116000       0.57174000
   189  H          0.60480000       0.91490000      -0.00450000
   190  H          0.10480000       0.41490000      -0.00450000
   191  H          0.39520000       0.91490000       0.50450000
   192  H          0.89520000       0.41490000       0.50450000
   193  H          0.39520000       0.08510000       0.00450000
   194  H          0.89520000       0.58510000       0.00450000
   195  H          0.60480000       0.08510000       0.49550000
   196  H          0.10480000       0.58510000       0.49550000
