data_JAQJET
_symmetry_space_group_name_H-M    'P1'
_symmetry_Int_Tables_number       1
loop_
_symmetry_equiv_pos_site_id
_symmetry_equiv_pos_as_xyz
1 x,y,z
_cell_length_a                   6.90452
_cell_length_b                   7.94412
_cell_length_c                   15.25654
_cell_angle_alpha                82.9111
_cell_angle_beta                 77.0521
_cell_angle_gamma                81.8841
loop_
_atom_site_label
_atom_site_type_symbol
_atom_site_fract_x
_atom_site_fract_y
_atom_site_fract_z
     1  S          0.00075140       0.00004100       0.00001600
     2  O          0.01235000       0.02906000       0.34372000
     3  H          0.02380000       0.93650000       0.37930000
     4  O          0.07505000       0.14367000       0.45982000
     5  O          0.38886000       0.55736000       0.89978000
     6  H          0.42190000       0.47050000       0.93470000
     7  O          0.44125000       0.67766000       0.01652000
     8  O          0.88044000      -0.00784000       0.93708000
     9  O          0.97124000       0.14574000       0.05042000
    10  N          0.23417000      -0.01075000       0.94907000
    11  H          0.31370000       0.04860000       0.96570000
    12  C          0.03937000       0.16015000       0.38313000
    13  C          0.02947000       0.32635000       0.32983000
    14  H          0.04840000       0.42280000       0.35670000
    15  C         -0.00457000       0.35225000       0.24623000
    16  H          0.97560000       0.25480000       0.22050000
    17  C          0.98583000       0.51385000       0.19053000
    18  C          0.93763000       0.51795000       0.10593000
    19  H          0.90970000       0.41640000       0.08670000
    20  C          0.93043000       0.66875000       0.04963000
    21  H          0.89410000       0.67150000      -0.00700000
    22  C          0.97673000       0.81535000       0.07683000
    23  C          0.02107000       0.81615000       0.16243000
    24  H          0.04900000       0.91820000       0.18120000
    25  C          0.02307000       0.66525000       0.21883000
    26  H          0.04970000       0.66460000       0.27730000
    27  C          0.39057000       0.68825000       0.94447000
    28  C          0.32757000       0.85585000       0.89147000
    29  H          0.23180000       0.83440000       0.85480000
    30  C          0.51608000       0.91164000       0.82807000
    31  H          0.58370000       0.81500000       0.79320000
    32  H          0.60770000       0.93660000       0.86500000
    33  C          0.48318000       0.06926000       0.76087000
    34  H          0.41360000       0.16780000       0.79520000
    35  C          0.35761000       0.03468000       0.69636000
    36  H          0.42540000       0.93810000       0.66260000
    37  H          0.34030000       0.13620000       0.65410000
    38  H          0.22630000       0.00710000       0.73080000
    39  C          0.69008000       0.11566000       0.70416000
    40  H          0.78140000       0.11760000       0.74470000
    41  H          0.67220000       0.22830000       0.67080000
    42  H          0.74630000       0.02990000       0.66150000
    43  S          0.51129140       0.41330900       0.46046700
    44  S          0.00612000       0.60104870       0.78531800
    45  O          0.49555000       0.37656000       0.11542000
    46  H          0.48290000       0.45950000       0.07730000
    47  O          0.44455000       0.26166000      -0.00362000
    48  O          0.13516000       0.84676000       0.55742000
    49  H          0.12280000       0.94560000       0.52830000
    50  O          0.05935000       0.72796000       0.44562000
    51  O          0.61935000       0.43486000       0.52742000
    52  O          0.56025000       0.26416000       0.41202000
    53  N          0.27776000       0.41736000       0.50752000
    54  H          0.21370000       0.35340000       0.48730000
    55  C          0.47507000       0.24574000       0.07333000
    56  C          0.48717000       0.07885000       0.12583000
    57  H          0.47440000       0.98120000       0.09830000
    58  C          0.51497000       0.05755000       0.21003000
    59  H          0.52990000       0.15690000       0.23560000
    60  C          0.52467000       0.89475000       0.26753000
    61  C          0.56577000       0.89395000       0.35293000
    62  H          0.59140000      -0.00320000       0.37170000
    63  C          0.56967000       0.74575000       0.41043000
    64  H          0.59890000       0.74550000       0.46840000
    65  C          0.52997000       0.59635000       0.38203000
    66  C          0.49298000       0.59394000       0.29723000
    67  H          0.46970000       0.49010000       0.27850000
    68  C          0.48937000       0.74035000       0.23963000
    69  H          0.46330000       0.73850000       0.18120000
    70  C          0.11627000       0.71485000       0.51653000
    71  C          0.17467000       0.54375000       0.56763000
    72  H          0.26330000       0.56190000       0.60840000
    73  C          0.98463000       0.47265000       0.62513000
    74  H          0.89460000       0.46000000       0.58480000
    75  H          0.02330000       0.35760000       0.65360000
    76  C          0.87053000       0.58365000       0.69873000
    77  H          0.74410000       0.53620000       0.72760000
    78  H          0.83550000       0.69970000       0.67030000
    79  C          0.97992000       0.39544000       0.84783000
    80  H          0.83800000       0.38590000       0.87310000
    81  H          0.05280000       0.38290000       0.89680000
    82  H          0.03480000       0.30570000       0.80740000
