data_JAQNOF
_symmetry_space_group_name_H-M    'P1'
_symmetry_Int_Tables_number       1
loop_
_symmetry_equiv_pos_site_id
_symmetry_equiv_pos_as_xyz
1 x,y,z
_cell_length_a                   6.673213
_cell_length_b                   7.522415
_cell_length_c                   12.8763
_cell_angle_alpha                93.513
_cell_angle_beta                 102.413
_cell_angle_gamma                91.903
loop_
_atom_site_label
_atom_site_type_symbol
_atom_site_fract_x
_atom_site_fract_y
_atom_site_fract_z
     1  I          0.82151200       0.18223200       0.91572313
     2  I          0.17848800       0.81776800       0.08427687
     3  C          0.40735000       0.93846000       0.63232000
     4  C          0.59265000       0.06154000       0.36768000
     5  H          0.41490000       0.90640000       0.56230000
     6  H          0.58510000       0.09360000       0.43770000
     7  N          0.23054000       0.90457000       0.66194190
     8  N          0.76946000       0.09543000       0.33805810
     9  C          0.22015000       0.95216000       0.76232000
    10  C          0.77985000       0.04784000       0.23768000
    11  H          0.09720000       0.92940000       0.78310000
    12  H          0.90280000       0.07060000       0.21690000
    13  C          0.56555000       0.06594000       0.80472000
    14  C          0.43445000       0.93406000       0.19528000
    15  C          0.57865000       0.01864000       0.70042000
    16  C          0.42135000      -0.01864000       0.29958000
    17  H          0.69930000       0.04040000       0.67730000
    18  H          0.30070000       0.95960000       0.32270000
    19  C          0.38294000       0.03364000       0.83662000
    20  C          0.61706000       0.96636000       0.16338000
    21  H          0.37040000       0.06560000       0.90570000
    22  H          0.62960000       0.93440000       0.09430000
    23  O          0.91283000       0.74423000       0.53116170
    24  O          0.08717000       0.25577000       0.46883830
    25  O          0.11783000       0.73963000       0.41469180
    26  O          0.88217000       0.26037000       0.58530820
    27  C          0.77854000       0.61074000       0.35862000
    28  C          0.22146000       0.38926000       0.64138000
    29  C          0.64734000       0.47254000       0.18162000
    30  C          0.35266000       0.52746000       0.81838000
    31  H          0.66430000       0.43870000       0.11340000
    32  H          0.33570000       0.56130000       0.88660000
    33  C          0.95344000       0.70404000       0.43702000
    34  C          0.04656000       0.29596000       0.56298000
    35  C          0.42914000       0.48724000       0.31122000
    36  C          0.57086000       0.51276000       0.68878000
    37  H          0.30340000       0.46190000       0.32860000
    38  H          0.69660000       0.53810000       0.67140000
    39  C          0.80574000       0.55914000       0.25682000
    40  C          0.19426000       0.44086000       0.74318000
    41  H          0.93160000       0.58300000       0.23940000
    42  H          0.06840000       0.41700000       0.76060000
    43  C          0.58915000       0.57534000       0.38472000
    44  C          0.41085000       0.42466000       0.61528000
    45  H          0.57040000       0.61140000       0.45220000
    46  H          0.42960000       0.38860000       0.54780000
    47  O          0.12943000       0.31523000       0.15733190
    48  O          0.87057000       0.68477000       0.84266810
    49  O          0.31744000       0.31493000       0.04038170
    50  O          0.68256000       0.68507000       0.95961830
    51  N          0.29194000       0.34973000       0.13055190
    52  N          0.70806000       0.65027000       0.86944810
    53  C          0.46234000       0.43773000       0.21112000
    54  C          0.53766000       0.56227000       0.78888000
    55  H          0.03480000       0.81260000       0.57640000
    56  H          0.96520000       0.18740000       0.42360000
