data_JAQNUL
_symmetry_space_group_name_H-M    'P1'
_symmetry_Int_Tables_number       1
loop_
_symmetry_equiv_pos_site_id
_symmetry_equiv_pos_as_xyz
1 x,y,z
_cell_length_a                   9.169618
_cell_length_b                   11.2602
_cell_length_c                   13.7603
_cell_angle_alpha                90.0
_cell_angle_beta                 92.163
_cell_angle_gamma                90.0
loop_
_atom_site_label
_atom_site_type_symbol
_atom_site_fract_x
_atom_site_fract_y
_atom_site_fract_z
     1  I          0.12855200       0.19095917       0.10791713
     2  I          0.87144800       0.69095917       0.39208287
     3  I          0.87144800       0.80904083       0.89208287
     4  I          0.12855200       0.30904083       0.60791713
     5  N          0.84373000       0.24242000       0.80695170
     6  N          0.15627000       0.74242000       0.69304830
     7  N          0.15627000       0.75758000       0.19304830
     8  N          0.84373000       0.25758000       0.30695170
     9  C          0.92093000       0.31452000       0.96372000
    10  C          0.07907000       0.81452000       0.53628000
    11  C          0.07907000       0.68548000       0.03628000
    12  C          0.92093000       0.18548000       0.46372000
    13  H          0.91630000       0.37250000       0.01160000
    14  H          0.08370000       0.87250000       0.48840000
    15  H          0.08370000       0.62750000       0.98840000
    16  H          0.91630000       0.12750000       0.51160000
    17  C          0.93063000       0.14773000       0.82102000
    18  C          0.06937000       0.64773000       0.67898000
    19  C          0.06937000       0.85227000       0.17898000
    20  C          0.93063000       0.35227000       0.32102000
    21  H          0.93330000       0.09070000       0.77210000
    22  H          0.06670000       0.59070000       0.72790000
    23  H          0.06670000       0.90930000       0.22790000
    24  H          0.93330000       0.40930000       0.27210000
    25  C          0.00833000       0.21553000       0.97682000
    26  C         -0.00833000       0.71553000       0.52318000
    27  C         -0.00833000       0.78447000       0.02318000
    28  C          0.00833000       0.28447000       0.47682000
    29  C          0.01613000       0.13063000       0.90432000
    30  C          0.98387000       0.63063000       0.59568000
    31  C          0.98387000       0.86937000       0.09568000
    32  C          0.01613000       0.36937000       0.40432000
    33  H          0.07670000       0.06470000       0.91170000
    34  H          0.92330000       0.56470000       0.58830000
    35  H          0.92330000       0.93530000       0.08830000
    36  H          0.07670000       0.43530000       0.41170000
    37  C          0.84034000       0.32473000       0.87713000
    38  C          0.15966000       0.82473000       0.62287000
    39  C          0.15966000       0.67527000       0.12287000
    40  C          0.84034000       0.17527000       0.37713000
    41  H          0.78150000       0.39130000       0.86720000
    42  H          0.21850000       0.89130000       0.63280000
    43  H          0.21850000       0.60870000       0.13280000
    44  H          0.78150000       0.10870000       0.36720000
    45  O          0.74032000       0.41391170       0.60868140
    46  O          0.25968000       0.91391170       0.89131860
    47  O          0.25968000       0.58608830       0.39131860
    48  O          0.74032000       0.08608830       0.10868140
    49  C          0.38954000       0.19782000       0.41653000
    50  C          0.61046000       0.69782000       0.08347000
    51  C          0.61046000       0.80218000       0.58347000
    52  C          0.38954000       0.30218000       0.91653000
    53  C          0.67154000       0.32242000       0.59672000
    54  C          0.32846000       0.82242000       0.90328000
    55  C          0.32846000       0.67758000       0.40328000
    56  C          0.67154000       0.17758000       0.09672000
    57  C          0.57173000       0.30522000       0.50752000
    58  C          0.42827000       0.80522000      -0.00752000
    59  C          0.42827000       0.69478000       0.49248000
    60  C          0.57173000       0.19478000       0.00752000
    61  O          0.19772000       0.09462000       0.33957160
    62  O          0.80228000       0.59462000       0.16042840
    63  O          0.80228000       0.90538000       0.66042840
    64  O          0.19772000       0.40538000       0.83957160
    65  O          0.29693000       0.02032000       0.47158170
    66  O          0.70307000       0.52032000       0.02841830
    67  O          0.70307000       0.97968000       0.52841830
    68  O          0.29693000       0.47968000       0.97158170
    69  N          0.48053000       0.46582000       0.27555170
    70  N          0.51947000       0.96582000       0.22444830
    71  N          0.51947000       0.53418000       0.72444830
    72  N          0.48053000       0.03418000       0.77555170
    73  C          0.48053000       0.20672000       0.49852000
    74  C          0.51947000       0.70672000       0.00148000
    75  C          0.51947000       0.79328000       0.50148000
    76  C          0.48053000       0.29328000      -0.00148000
    77  H          0.48070000       0.14850000       0.54650000
    78  H          0.51930000       0.64850000       0.95350000
    79  H          0.51930000       0.85150000       0.45350000
    80  H          0.48070000       0.35150000       0.04650000
    81  O          0.39963000       0.45072000       0.20416140
    82  O          0.60037000       0.95072000       0.29583860
    83  O          0.60037000       0.54928000       0.79583860
    84  O          0.39963000       0.04928000       0.70416140
    85  C          0.48063000       0.37562000       0.35348190
    86  C          0.51937000       0.87562000       0.14651810
    87  C          0.51937000       0.62438000       0.64651810
    88  C          0.48063000       0.12438000       0.85348190
    89  N          0.28763000       0.09652000       0.40802180
    90  N          0.71237000       0.59652000       0.09197820
    91  N          0.71237000       0.90348000       0.59197820
    92  N          0.28763000       0.40348000       0.90802180
    93  C          0.38663000       0.28113000       0.34192000
    94  C          0.61337000       0.78113000       0.15808000
    95  C          0.61337000       0.71887000       0.65808000
    96  C          0.38663000       0.21887000       0.84192000
    97  H          0.32450000       0.27340000       0.28720000
    98  H          0.67550000       0.77340000       0.21280000
    99  H          0.67550000       0.72660000       0.71280000
   100  H          0.32450000       0.22660000       0.78720000
   101  C          0.57303000       0.39102000       0.43469190
   102  C          0.42697000       0.89102000       0.06530810
   103  C          0.42697000       0.60898000       0.56530810
   104  C          0.57303000       0.10898000       0.93469190
   105  H          0.63410000       0.45670000       0.44030000
   106  H          0.36590000       0.95670000       0.05970000
   107  H          0.36590000       0.54330000       0.55970000
   108  H          0.63410000       0.04330000       0.94030000
   109  O          0.56193000       0.55132000       0.28730160
   110  O          0.43807000       0.05132000       0.21269840
   111  O          0.43807000       0.44868000       0.71269840
   112  O          0.56193000       0.94868000       0.78730160
   113  O          0.67242000       0.23193190       0.65588150
   114  O          0.32758000       0.73193190       0.84411850
   115  O          0.32758000       0.76806810       0.34411850
   116  O          0.67242000       0.26806810       0.15588150
   117  H          0.76060000       0.26450000       0.72840000
   118  H          0.23940000       0.76450000       0.77160000
   119  H          0.23940000       0.73550000       0.27160000
   120  H          0.76060000       0.23550000       0.22840000
