data_JAQXUX
_symmetry_space_group_name_H-M    'P1'
_symmetry_Int_Tables_number       1
loop_
_symmetry_equiv_pos_site_id
_symmetry_equiv_pos_as_xyz
1 x,y,z
_cell_length_a                   12.26193
_cell_length_b                   11.50463
_cell_length_c                   16.20063
_cell_angle_alpha                90.0
_cell_angle_beta                 92.2252
_cell_angle_gamma                90.0
loop_
_atom_site_label
_atom_site_type_symbol
_atom_site_fract_x
_atom_site_fract_y
_atom_site_fract_z
     1  O          0.85633880       0.69622110       0.43890800
     2  O          0.14366120       0.19622110       0.06109200
     3  O          0.14366120       0.30377890       0.56109200
     4  O          0.85633880       0.80377890       0.93890800
     5  O          0.72728890       0.58366110       0.38850800
     6  O          0.27271110       0.08366110       0.11149200
     7  O          0.27271110       0.41633890       0.61149200
     8  O          0.72728890       0.91633890       0.88850800
     9  O          0.83752870       0.96461120       0.42322800
    10  O          0.16247130       0.46461120       0.07677200
    11  O          0.16247130       0.03538880       0.57677200
    12  O          0.83752870       0.53538880       0.92322800
    13  O          0.67598880       0.01195120       0.37274800
    14  O          0.32401120       0.51195120       0.12725200
    15  O          0.32401120      -0.01195120       0.62725200
    16  O          0.67598880       0.48804880       0.87274800
    17  O          0.61035880       0.52750110       0.19920900
    18  O          0.38964120       0.02750110       0.30079100
    19  O          0.38964120       0.47249890       0.80079100
    20  O          0.61035880       0.97249890       0.69920900
    21  O          0.68523880       0.53343100       0.07947800
    22  O          0.31476120       0.03343100       0.42052200
    23  O          0.31476120       0.46656900       0.92052200
    24  O          0.68523880       0.96656900       0.57947800
    25  O          0.65666870       0.03033110       0.07041800
    26  O          0.34333130       0.53033110       0.42958200
    27  O          0.34333130       0.96966890       0.92958200
    28  O          0.65666870       0.46966890       0.57041800
    29  O          0.57474870       0.03135110       0.18728900
    30  O          0.42525130       0.53135110       0.31271100
    31  O          0.42525130       0.96864890       0.81271100
    32  O          0.57474870       0.46864890       0.68728900
    33  O          0.03321120       0.61213120       0.23587900
    34  O          0.96678880       0.11213120       0.26412100
    35  O          0.96678880       0.38786880       0.76412100
    36  O          0.03321120       0.88786880       0.73587900
    37  O          0.91359880       0.52408110       0.15344900
    38  O          0.08640120       0.02408110       0.34655100
    39  O          0.08640120       0.47591890       0.84655100
    40  O          0.91359880       0.97591890       0.65344900
    41  O          0.05560110       0.97012110       0.13347800
    42  O          0.94439890       0.47012110       0.36652200
    43  O          0.94439890       0.02987890       0.86652200
    44  O          0.05560110       0.52987890       0.63347800
    45  O          0.91484880       0.03221110       0.05879800
    46  O          0.08515120       0.53221110       0.44120200
    47  O          0.08515120       0.96778890       0.94120200
    48  O          0.91484880       0.46778890       0.55879800
    49  N          0.81123870       0.70457120       0.30204800
    50  N          0.18876130       0.20457120       0.19795200
    51  N          0.18876130       0.29542880       0.69795200
    52  N          0.81123870       0.79542880       0.80204800
    53  N          0.78542870       0.90451120       0.29570800
    54  N          0.21457130       0.40451120       0.20429200
    55  N          0.21457130       0.09548880       0.70429200
    56  N          0.78542870       0.59548880       0.79570800
    57  N          0.71883880       0.67534110       0.17066800
    58  N          0.28116120       0.17534110       0.32933200
    59  N          0.28116120       0.32465890       0.82933200
    60  N          0.71883880       0.82465890       0.67066800
    61  N          0.69230880       0.88919110       0.16170800
    62  N          0.30769120       0.38919110       0.33829200
    63  N          0.30769120       0.11080890       0.83829200
    64  N          0.69230880       0.61080890       0.66170800
    65  N          0.91287870       0.71665110       0.16267900
    66  N          0.08712130       0.21665110       0.33732100
    67  N          0.08712130       0.28334890       0.83732100
    68  N          0.91287870       0.78334890       0.66267900
    69  N          0.88663880       0.90785120       0.16116800
    70  N          0.11336120       0.40785120       0.33883200
    71  N          0.11336120       0.09214880       0.83883200
    72  N          0.88663880       0.59214880       0.66116800
    73  N          0.79579870       0.65916130       0.38348900
    74  N          0.20420130       0.15916130       0.11651100
    75  N          0.20420130       0.34083870       0.61651100
    76  N          0.79579870       0.84083870       0.88348900
    77  N          0.76406850       0.96296130       0.37053100
    78  N          0.23593150       0.46296130       0.12946900
    79  N          0.23593150       0.03703870       0.62946900
    80  N          0.76406850       0.53703870       0.87053100
    81  N          0.66899870       0.57070120       0.14844100
    82  N          0.33100130       0.07070120       0.35155900
    83  N          0.33100130       0.42929880       0.85155900
    84  N          0.66899870       0.92929880       0.64844100
    85  N          0.63820860      -0.00835880       0.13870100
    86  N          0.36179140       0.49164120       0.36129900
    87  N          0.36179140       0.00835880       0.86129900
    88  N          0.63820860       0.50835880       0.63870100
    89  N          0.95554870       0.60991130       0.18635100
    90  N          0.04445130       0.10991130       0.31364900
    91  N          0.04445130       0.39008870       0.81364900
    92  N          0.95554870       0.89008870       0.68635100
    93  N          0.95886860       0.97339120       0.11311900
    94  N          0.04113140       0.47339120       0.38688100
    95  N          0.04113140       0.02660880       0.88688100
    96  N          0.95886860       0.52660880       0.61311900
    97  C          0.70806840       0.72056150       0.25293110
    98  C          0.29193160       0.22056150       0.24706890
    99  C          0.29193160       0.27943850       0.74706890
   100  C          0.70806840       0.77943850       0.75293110
   101  H          0.64888500       0.68181400       0.27741000
   102  H          0.35111500       0.18181400       0.22259000
   103  H          0.35111500       0.31818600       0.72259000
   104  H          0.64888500       0.81818600       0.77741000
   105  C          0.69134850       0.85607140       0.24823110
   106  C          0.30865150       0.35607140       0.25176890
   107  C          0.30865150       0.14392860       0.75176890
   108  C          0.69134850       0.64392860       0.74823110
   109  H          0.62468600       0.88061300       0.27309000
   110  H          0.37531400       0.38061300       0.22691000
   111  H          0.37531400       0.11938700       0.72691000
   112  H          0.62468600       0.61938700       0.77309000
   113  C          0.87107840       0.81561150       0.29908110
   114  C          0.12892160       0.31561150       0.20091890
   115  C          0.12892160       0.18438850       0.70091890
   116  C          0.87107840       0.68438850       0.79908110
   117  H          0.91978500       0.82331500       0.34491100
   118  H          0.08021500       0.32331500       0.15508900
   119  H          0.08021500       0.17668500       0.65508900
   120  H          0.91978500       0.67668500       0.84491100
   121  C          0.80430840       0.72352150       0.12189110
   122  C          0.19569160       0.22352150       0.37810890
   123  C          0.19569160       0.27647850       0.87810890
   124  C          0.80430840       0.77647850       0.62189110
   125  H          0.80328500       0.68511400       0.06561100
   126  H          0.19671500       0.18511400       0.43438900
   127  H          0.19671500       0.31488600       0.93438900
   128  H          0.80328500       0.81488600       0.56561100
   129  C          0.78925850       0.85970140       0.11808110
   130  C          0.21074150       0.35970140       0.38191890
   131  C          0.21074150       0.14029860       0.88191890
   132  C          0.78925850       0.64029860       0.61808110
   133  H          0.78228600       0.88841400       0.06391100
   134  H          0.21771400       0.38841400       0.43608900
   135  H          0.21771400       0.11158600       0.93608900
   136  H          0.78228600       0.61158600       0.56391100
   137  C          0.93391840       0.81880150       0.21472110
   138  C          0.06608160       0.31880150       0.28527890
   139  C          0.06608160       0.18119850       0.78527890
   140  C          0.93391840       0.68119850       0.71472110
   141  H          0.00691600       0.82831500       0.22631100
   142  H         -0.00691600       0.32831500       0.27368900
   143  H         -0.00691600       0.17168500       0.77368900
   144  H          0.00691600       0.67168500       0.72631100
   145  O          0.59609120       0.76246120       0.48395800
   146  O          0.40390880       0.26246120       0.01604200
   147  O          0.40390880       0.23753880       0.51604200
   148  O          0.59609120       0.73753880       0.98395800
   149  O          0.27789110       0.79456120       0.22622800
   150  O          0.72210890       0.29456120       0.27377200
   151  O          0.72210890       0.20543880       0.77377200
   152  O          0.27789110       0.70543880       0.72622800
   153  O          0.06148110       0.79009110       0.51758800
   154  O          0.93851890       0.29009110       0.98241200
   155  O          0.93851890       0.20990890       0.48241200
   156  O          0.06148110       0.70990890       0.01758800
   157  O          0.33459110       0.74345120       0.54626800
   158  O          0.66540890       0.24345120       0.95373200
   159  O          0.66540890       0.25654880       0.45373200
   160  O          0.33459110       0.75654880       0.04626800
   161  O          0.46384110       0.77690110       0.23053800
   162  O          0.53615890       0.27690110       0.26946200
   163  O          0.53615890       0.22309890       0.76946200
   164  O          0.46384110       0.72309890       0.73053800
   165  N          0.51852140       0.75308150       0.54390100
   166  N          0.48147860       0.25308150       0.95609900
   167  N          0.48147860       0.24691850       0.45609900
   168  N          0.51852140       0.74691850       0.04390100
   169  N          0.54788140       0.77384130       0.40608100
   170  N          0.45211860       0.27384130       0.09391900
   171  N          0.45211860       0.22615870       0.59391900
   172  N          0.54788140       0.72615870       0.90608100
   173  N          0.38247130       0.78149130       0.27068900
   174  N          0.61752870       0.28149130       0.22931100
   175  N          0.61752870       0.21850870       0.72931100
   176  N          0.38247130       0.71850870       0.77068900
   177  N          0.19785140       0.79837140       0.28308900
   178  N          0.80214860       0.29837140       0.21691100
   179  N          0.80214860       0.20162860       0.71691100
   180  N          0.19785140       0.70162860       0.78308900
   181  N          0.08464140       0.80050130       0.43593900
   182  N          0.91535860       0.30050130       0.06406100
   183  N          0.91535860       0.19949870       0.56406100
   184  N          0.08464140       0.69949870       0.93593900
   185  N          0.15450140       0.76906140       0.56638100
   186  N          0.84549860       0.26906140       0.93361900
   187  N          0.84549860       0.23093860       0.43361900
   188  N          0.15450140       0.73093860       0.06638100
   189  C          0.42563160       0.75714150       0.50288110
   190  C          0.57436840       0.25714150      -0.00288110
   191  C          0.57436840       0.24285850       0.49711890
   192  C          0.42563160       0.74285850       0.00288110
   193  C          0.44248160       0.77037140       0.41668110
   194  C          0.55751840       0.27037140       0.08331890
   195  C          0.55751840       0.22962860       0.58331890
   196  C          0.44248160       0.72962860       0.91668110
   197  C          0.36137160       0.77835140       0.35026110
   198  C          0.63862840       0.27835140       0.14973890
   199  C          0.63862840       0.22164860       0.64973890
   200  C          0.36137160       0.72164860       0.85026110
   201  C          0.24723160       0.78795150       0.35569110
   202  C          0.75276840       0.28795150       0.14430890
   203  C          0.75276840       0.21204850       0.64430890
   204  C          0.24723160       0.71204850       0.85569110
   205  C          0.18970160       0.78605140       0.43273110
   206  C          0.81029840       0.28605140       0.06726890
   207  C          0.81029840       0.21394860       0.56726890
   208  C          0.18970160       0.71394860       0.93273110
   209  C          0.23250160       0.76654150       0.51446110
   210  C          0.76749840       0.26654150       0.98553890
   211  C          0.76749840       0.23345850       0.48553890
   212  C          0.23250160       0.73345850       0.01446110
