data_JAQXOR
_symmetry_space_group_name_H-M    'P1'
_symmetry_Int_Tables_number       1
loop_
_symmetry_equiv_pos_site_id
_symmetry_equiv_pos_as_xyz
1 x,y,z
_cell_length_a                   8.26162
_cell_length_b                   11.46723
_cell_length_c                   11.75513
_cell_angle_alpha                90.0
_cell_angle_beta                 90.9562
_cell_angle_gamma                90.0
loop_
_atom_site_label
_atom_site_type_symbol
_atom_site_fract_x
_atom_site_fract_y
_atom_site_fract_z
     1  O          0.73602000       0.24628160       0.31024160
     2  O          0.26398000       0.74628160       0.68975840
     3  O          0.84672190       0.35492170       0.18083160
     4  O          0.15327810       0.85492170       0.81916840
     5  O          0.80902000       0.63563190       0.18655180
     6  O          0.19098000       0.13563190       0.81344820
     7  O          0.68862000       0.69471180       0.34049180
     8  O          0.31138000       0.19471180       0.65950820
     9  O          0.13332000       0.19996170       0.31066180
    10  O          0.86668000       0.69996170       0.68933820
    11  O          0.35692000       0.20244180       0.41170180
    12  O          0.64308000       0.70244180       0.58829820
    13  O          0.32432000       0.69567170       0.43211170
    14  O          0.67568000       0.19567170       0.56788830
    15  O          0.12382000       0.70862160       0.31057180
    16  O          0.87618000       0.20862160       0.68942820
    17  O          0.46262000       0.26566180       0.96507840
    18  O          0.53738000       0.76566180       0.03492160
    19  O          0.29672000       0.18158160       0.08356180
    20  O          0.70328000       0.68158160       0.91643820
    21  O          0.28842000       0.63162160       0.91794850
    22  O          0.71158000       0.13162160       0.08205150
    23  O          0.09482000       0.67007170       0.03627170
    24  O          0.90518000       0.17007170       0.96372830
    25  N          0.57752000       0.36775190       0.20768170
    26  N          0.42248000       0.86775190       0.79231830
    27  N          0.56152000       0.56838190       0.22630180
    28  N          0.43848000       0.06838190       0.77369820
    29  N          0.31352000       0.34245170       0.28517190
    30  N          0.68648000       0.84245170       0.71482810
    31  N          0.29312000       0.55741180       0.30114180
    32  N          0.70688000       0.05741180       0.69885820
    33  N          0.31722000       0.37400180       0.08048180
    34  N          0.68278000       0.87400180       0.91951820
    35  N          0.30992000       0.56748180       0.09790180
    36  N          0.69008000       0.06748180       0.90209820
    37  N          0.73412000       0.32039190       0.23686190
    38  N          0.26588000       0.82039190       0.76313810
    39  N          0.69832000       0.63682000       0.25502000
    40  N          0.30168000       0.13682000       0.74498000
    41  N          0.26593000       0.23994190       0.33862000
    42  N          0.73407000       0.73994190       0.66138000
    43  N          0.24532000       0.66214190       0.35042000
    44  N          0.75468000       0.16214190       0.64958000
    45  N          0.36292000       0.26632000       0.04161190
    46  N          0.63708000       0.76632000       0.95838810
    47  N          0.22282000       0.62612190       0.00955190
    48  N          0.77718000       0.12612190      -0.00955190
    49  C          0.47403000       0.38822000       0.30762000
    50  C          0.52597000       0.88822000       0.69238000
    51  H          0.52230000       0.35520000       0.37620000
    52  H          0.47770000       0.85520000       0.62380000
    53  C          0.46143000       0.52422000       0.31792000
    54  C          0.53857000       0.02422000       0.68208000
    55  H          0.49830000       0.55120000       0.38520000
    56  H          0.50170000       0.05120000       0.61480000
    57  C          0.57743000       0.47662000       0.14182000
    58  C          0.42257000       0.97662000       0.85818000
    59  H          0.66930000       0.48720000       0.09720000
    60  H          0.33070000       0.98720000       0.90280000
    61  C          0.22683000       0.38582000       0.18592000
    62  C          0.77317000       0.88582000       0.81408000
    63  H          0.12130000       0.34420000       0.18120000
    64  H          0.87870000       0.84420000       0.81880000
    65  C          0.21643000       0.52292000       0.19452000
    66  C          0.78357000       0.02292000       0.80548000
    67  H          0.10730000       0.55320000       0.19120000
    68  H          0.89270000       0.05320000       0.80880000
    69  C          0.42003000       0.47652000       0.06172000
    70  C          0.57997000       0.97652000       0.93828000
    71  H          0.45720000       0.48220000       0.98480000
    72  H          0.54280000       0.98220000       0.01520000
    73  O          0.01342000       0.91940170       0.03489150
    74  O         -0.01342000       0.41940170       0.96510850
    75  O          0.54904180       0.95922000       0.32004150
    76  O          0.45095820       0.45922000       0.67995850
    77  O          0.01530190       0.95756190       0.59618150
    78  O         -0.01530190       0.45756190       0.40381850
    79  O          0.92091810       0.93402000       0.31465150
    80  O          0.07908190       0.43402000       0.68534850
    81  N          0.90668000       0.91822000       0.12383190
    82  N          0.09332000       0.41822000       0.87616810
    83  N          0.17112000       0.93222000       0.07247180
    84  N          0.82888000       0.43222000       0.92752820
    85  N          0.45542000       0.95502000       0.22241180
    86  N          0.54458000       0.45502000       0.77758820
    87  N          0.45602000       0.95652000       0.41594180
    88  N          0.54398000       0.45652000       0.58405820
    89  N          0.17392000       0.95992000       0.55942180
    90  N          0.82608000       0.45992000       0.44057820
    91  N          0.90778000       0.94662000       0.50545180
    92  N          0.09222000       0.44662000       0.49454820
    93  C         -0.00183000       0.93102000       0.21402000
    94  C          0.00183000       0.43102000       0.78598000
    95  C          0.16373000       0.93932000       0.18282000
    96  C          0.83627000       0.43932000       0.81718000
    97  C          0.30603000       0.94972000       0.25752000
    98  C          0.69397000       0.44972000       0.74248000
    99  C          0.30673000       0.95152000       0.37762000
   100  C          0.69327000       0.45152000       0.62238000
   101  C          0.16513000       0.95112000       0.44942000
   102  C          0.83487000       0.45112000       0.55058000
   103  C         -0.00183000       0.94312000       0.41632000
   104  C          0.00183000       0.44312000       0.58368000
