data_JAVXAG
_symmetry_space_group_name_H-M    'P1'
_symmetry_Int_Tables_number       1
loop_
_symmetry_equiv_pos_site_id
_symmetry_equiv_pos_as_xyz
1 x,y,z
_cell_length_a                   7.79857
_cell_length_b                   12.09111
_cell_length_c                   13.282411
_cell_angle_alpha                106.7162
_cell_angle_beta                 99.8492
_cell_angle_gamma                90.8972
loop_
_atom_site_label
_atom_site_type_symbol
_atom_site_fract_x
_atom_site_fract_y
_atom_site_fract_z
     1  Br         0.32739800       0.90301600       0.59807500
     2  Br         0.67260200       0.09698400       0.40192500
     3  Br         0.73557900       0.90074600       0.59683500
     4  Br         0.26442100       0.09925400       0.40316500
     5  S          0.59952000       0.90413160       0.79638130
     6  S          0.40048000       0.09586840       0.20361870
     7  S          0.53753000       0.68854140       0.60488140
     8  S          0.46247000       0.31145860       0.39511860
     9  O          0.76238000       0.86756000       0.83254000
    10  O          0.23762000       0.13244000       0.16746000
    11  O          0.56158000       0.02314000       0.82714000
    12  O          0.43842000       0.97686000       0.17286000
    13  O          0.70098000       0.65275000       0.64165000
    14  O          0.29902000       0.34725000       0.35835000
    15  O          0.45879000       0.65364000       0.49574000
    16  O          0.54121000       0.34636000       0.50426000
    17  F          0.27907000       0.86424000       0.82144000
    18  F          0.72093000       0.13576000       0.17856000
    19  F          0.48619000       0.85835000       0.95094000
    20  F          0.51381000       0.14165000       0.04906000
    21  F          0.30411000       0.65445000       0.84395000
    22  F          0.69589000       0.34555000       0.15605000
    23  F          0.58269000       0.65925000       0.84045000
    24  F          0.41731000       0.34075000       0.15955000
    25  F          0.39141000       0.52804000       0.65705000
    26  F          0.60859000       0.47196000       0.34295000
    27  F          0.22418000       0.66765000       0.64534000
    28  F          0.77582000       0.33235000       0.35466000
    29  C          0.54528000       0.84625000       0.65275000
    30  C          0.45472000       0.15375000       0.34725000
    31  C          0.43871200       0.82607000       0.84386000
    32  C          0.56128800       0.17393000       0.15614000
    33  C          0.42871300       0.69527000       0.80377000
    34  C          0.57128700       0.30473000       0.19623000
    35  C          0.38391300       0.64236000       0.67907000
    36  C          0.61608700       0.35764000       0.32093000
    37  Br         0.00000000      -0.00000000       0.50000000
    38  P          0.09052000       0.34267140       0.86512130
    39  P          0.90948000       0.65732860       0.13487870
    40  O          0.11537000       0.45314000       0.95734000
    41  O          0.88463000       0.54686000       0.04266000
    42  N          0.26877000       0.33015000       0.81564000
    43  N          0.73123000       0.66985000       0.18436000
    44  N          0.92632000       0.34675000       0.77475000
    45  N          0.07368000       0.65325000       0.22525000
    46  N          0.05737000       0.23355000       0.90865000
    47  N          0.94263000       0.76645000       0.09135000
    48  C          0.93638800       0.23638000       0.98138000
    49  C          0.06361200       0.76362000       0.01862000
    50  H          0.83770000       0.18280000       0.94510000
    51  H          0.16230000       0.81720000       0.05490000
    52  H          0.89790000       0.31310000       0.00450000
    53  H          0.10210000       0.68690000      -0.00450000
    54  H         -0.00600000       0.21500000       0.04220000
    55  H          0.00600000       0.78500000       0.95780000
    56  C          0.11861300       0.11697000       0.86378000
    57  C          0.88138700       0.88303000       0.13622000
    58  H          0.13200000       0.07670000       0.91690000
    59  H          0.86800000       0.92330000       0.08310000
    60  H          0.22880000       0.12470000       0.84250000
    61  H          0.77120000       0.87530000       0.15750000
    62  H          0.03480000       0.07380000       0.80260000
    63  H          0.96520000       0.92620000       0.19740000
    64  C          0.43811000       0.35008000       0.88487000
    65  C          0.56189000       0.64992000       0.11513000
    66  H          0.49630000       0.27930000       0.87250000
    67  H          0.50370000       0.72070000       0.12750000
    68  H          0.42380000       0.37620000       0.95810000
    69  H          0.57620000       0.62380000       0.04190000
    70  H          0.50660000       0.40790000       0.86950000
    71  H          0.49340000       0.59210000       0.13050000
    72  C          0.27181200       0.27338000       0.70396000
    73  C          0.72818800       0.72662000       0.29604000
    74  H          0.33090000       0.32420000       0.67520000
    75  H          0.66910000       0.67580000       0.32480000
    76  H          0.15440000       0.25440000       0.66490000
    77  H          0.84560000       0.74560000       0.33510000
    78  H          0.33210000       0.20370000       0.69750000
    79  H          0.66790000       0.79630000       0.30250000
    80  C          0.90638200       0.44921000       0.73791000
    81  C          0.09361800       0.55079000       0.26209000
    82  H          0.80960000       0.48930000       0.76300000
    83  H          0.19040000       0.51070000       0.23700000
    84  H          0.88560000       0.42630000       0.66120000
    85  H          0.11440000       0.57370000       0.33880000
    86  H          0.01100000       0.49940000       0.76530000
    87  H         -0.01100000       0.50060000       0.23470000
    88  C          0.80448800       0.24708000       0.71337000
    89  C          0.19551200       0.75292000       0.28663000
    90  H          0.69180000       0.27350000       0.69370000
    91  H          0.30820000       0.72650000       0.30630000
    92  H          0.79550000       0.19610000       0.75610000
    93  H          0.20450000       0.80390000       0.24390000
    94  H          0.84660000       0.20620000       0.64980000
    95  H          0.15340000       0.79380000       0.35020000
