data_JAWDAQ
_symmetry_space_group_name_H-M    'P1'
_symmetry_Int_Tables_number       1
loop_
_symmetry_equiv_pos_site_id
_symmetry_equiv_pos_as_xyz
1 x,y,z
_cell_length_a                   10.12502
_cell_length_b                   14.71323
_cell_length_c                   20.24184
_cell_angle_alpha                77.3502
_cell_angle_beta                 85.7222
_cell_angle_gamma                76.0852
loop_
_atom_site_label
_atom_site_type_symbol
_atom_site_fract_x
_atom_site_fract_y
_atom_site_fract_z
     1  Br         0.94736300       0.39693200       0.64863200
     2  Br         0.05263700       0.60306800       0.35136800
     3  Br         0.40693300       0.84725200       0.65755200
     4  Br         0.59306700       0.15274800       0.34244800
     5  Br         0.29741300       0.53403200       0.54256200
     6  Br         0.70258700       0.46596800       0.45743800
     7  Br         0.50050300       0.51562200       0.76620200
     8  Br         0.49949700       0.48437800       0.23379800
     9  Br         0.28816300       0.04814200       0.80605200
    10  Br         0.71183700       0.95185800       0.19394800
    11  Cl         0.08613900       0.27439600       0.84970500
    12  Cl         0.91386100       0.72560400       0.15029500
    13  Cl         0.84358100       0.42892900       0.82955600
    14  Cl         0.15641900       0.57107100       0.17044400
    15  Cl         0.08445130       0.45374800       0.88482600
    16  Cl         0.91554870       0.54625200       0.11517400
    17  C          0.02254000       0.39943000       0.82823190
    18  C          0.97746000       0.60057000       0.17176810
    19  H          0.05583400       0.42363800       0.78144300
    20  H          0.94416600       0.57636200       0.21855700
    21  N         -0.00288000       0.60476160       0.59404120
    22  N          0.00288000       0.39523840       0.40595880
    23  H          0.98783600       0.55009300       0.62344200
    24  H          0.01216400       0.44990700       0.37655800
    25  H          0.08634300       0.59674400       0.58092400
    26  H          0.91365700       0.40325600       0.41907600
    27  N          0.63942000       0.70832160       0.58896110
    28  N          0.36058000       0.29167840       0.41103890
    29  H          0.57008700       0.76013800       0.60520300
    30  H          0.42991300       0.23986200       0.39479700
    31  C          0.71073000       0.75901180       0.53180130
    32  C          0.28927000       0.24098820       0.46819870
    33  C          0.89813000       0.77466190       0.45422130
    34  C          0.10187000       0.22533810       0.54577870
    35  H          0.98532400       0.74771900       0.43711900
    36  H          0.01467600       0.25228100       0.56288100
    37  C          0.96293000       0.68312180       0.63058130
    38  C          0.03707000       0.31687820       0.36941870
    39  C          0.83723000       0.71769180       0.50627130
    40  C          0.16277000       0.28230820       0.49372870
    41  C          0.64593000       0.85312000       0.50477140
    42  C          0.35407000       0.14688000       0.49522860
    43  H          0.55914800       0.88034000       0.52213700
    44  H          0.44085200       0.11966000       0.47786300
    45  C          0.83583000       0.86952000       0.42646140
    46  C          0.16417000       0.13048000       0.57353860
    47  C          0.83243000       0.70760190       0.65878130
    48  C          0.16757000       0.29239810       0.34121870
    49  C          0.06053000       0.73332000       0.63444140
    50  C          0.93947000       0.26668000       0.36555860
    51  H          0.14854600       0.71613700       0.61456400
    52  H          0.85145400       0.28386300       0.38543600
    53  C          0.89953000       0.83602000       0.69694140
    54  C          0.10047000       0.16398000       0.30305860
    55  C          0.91343000       0.61619190       0.53141130
    56  C          0.08657000       0.38380810       0.46858870
    57  H          0.97511000       0.59449100       0.49479400
    58  H          0.02489000       0.40550900       0.50520600
    59  H          0.84765400       0.57468000       0.54267600
    60  H          0.15234600       0.42532000       0.45732400
    61  C          0.72543000       0.65588190       0.65090140
    62  C          0.27457000       0.34411810       0.34909860
    63  H          0.66588100       0.65166000       0.69203000
    64  H          0.33411900       0.34834000       0.30797000
    65  H          0.76940300       0.58994400       0.64575500
    66  H          0.23059700       0.41005600       0.35424500
    67  C          0.70823000       0.90730190       0.45232140
    68  C          0.29177000       0.09269810       0.54767860
    69  H          0.66272300       0.97133500       0.43380000
    70  H          0.33727700       0.02866500       0.56620000
    71  C          0.80243000       0.78392000       0.69190140
    72  C          0.19757000       0.21608000       0.30809860
    73  H          0.71425300       0.80118300       0.71156700
    74  H          0.28574700       0.19881700       0.28843300
    75  C          0.02763000       0.80962000       0.66804140
    76  C          0.97237000       0.19038000       0.33195860
    77  H          0.09441900       0.84404600       0.67111800
    78  H          0.90558100       0.15595400       0.32888200
    79  C          0.55773000       0.64552000       0.56935160
    80  C          0.44227000       0.35448000       0.43064840
    81  H          0.49004500       0.68434300       0.53610000
    82  H          0.50995500       0.31565700       0.46390000
    83  H          0.51122600       0.61605900       0.60965700
    84  H          0.48877400       0.38394100       0.39034300
    85  H          0.61860500       0.59530900       0.54955300
    86  H          0.38139500       0.40469100       0.45044700
    87  C          0.86674000       0.91632000       0.73465160
    88  C          0.13326000       0.08368000       0.26534840
    89  H          0.87132900       0.97653000       0.70323600
    90  H          0.12867100       0.02347000       0.29676400
    91  H          0.93266200       0.90344200       0.77053200
    92  H          0.06733800       0.09655800       0.22946800
    93  H          0.77486000       0.92129900       0.75477100
    94  H          0.22514000       0.07870100       0.24522900
    95  C          0.90313000       0.92772000       0.36944160
    96  C          0.09687000       0.07228000       0.63055840
    97  H         -0.00880600       0.88885600       0.35777700
    98  H          0.00880600       0.11114400       0.64222300
    99  H          0.91714100       0.98426100       0.38355500
   100  H          0.08285900       0.01573900       0.61644500
   101  H          0.84490100       0.94804300       0.32983900
   102  H          0.15509900       0.05195700       0.67016100
   103  N          0.67112000       0.33875160       0.70721120
   104  N          0.32888000       0.66124840       0.29278880
   105  H          0.75131400       0.35491700       0.69273300
   106  H          0.24868600       0.64508300       0.30726700
   107  H          0.62332200       0.38424600       0.72942600
   108  H          0.37667800       0.61575400       0.27057400
   109  N          0.41302000       0.20987160       0.71261120
   110  N          0.58698000       0.79012840       0.28738880
   111  H          0.38898300       0.14834300       0.73559200
   112  H          0.61101700       0.85165700       0.26440800
   113  C          0.83713000       0.20382000       0.77020150
   114  C          0.16287000       0.79618000       0.22979850
   115  H          0.90730500       0.23303400       0.74826600
   116  H          0.09269500       0.76696600       0.25173400
   117  C          0.52193000       0.18334190       0.66314130
   118  C          0.47807000       0.81665810       0.33685870
   119  C          0.54013000       0.09186190       0.64999140
   120  C          0.45987000       0.90813810       0.35000860
   121  H          0.48611500       0.04978300       0.67338400
   122  H          0.51388500       0.95021700       0.32661600
   123  C          0.63803000       0.06302000       0.60233140
   124  C          0.36197000       0.93698000       0.39766860
   125  H          0.65098400       0.00054000       0.59359700
   126  H          0.34901600      -0.00054000       0.40640300
   127  C          0.59733000       0.20618190       0.78772130
   128  C          0.40267000       0.79381810       0.21227870
   129  C          0.60123000       0.24612190       0.62994130
   130  C          0.39877000       0.75387810       0.37005870
   131  C          0.69753000       0.21522000       0.58188140
   132  C          0.30247000       0.78478000       0.41811860
   133  H          0.75123800       0.25733700       0.55835800
   134  H          0.24876200       0.74266300       0.44164200
   135  C          0.71783000       0.12392000       0.56699140
   136  C          0.28217000       0.87608000       0.43300860
   137  C          0.86933000       0.11722000       0.81636160
   138  C          0.13067000       0.88278000       0.18363840
   139  H          0.96190700       0.08721500       0.82592100
   140  H          0.03809300       0.91278500       0.17407900
   141  C          0.76753000       0.07362000       0.84879140
   142  C          0.23247000       0.92638000       0.15120860
   143  C          0.70223000       0.24724180       0.75644130
   144  C          0.29777000       0.75275820       0.24355870
   145  C          0.59143000       0.34386190       0.64455140
   146  C          0.40857000       0.65613810       0.35544860
   147  H          0.49456600       0.37454200       0.65167400
   148  H          0.50543400       0.62545800       0.34832600
   149  H          0.62711500       0.38423800       0.60486700
   150  H          0.37288500       0.61576200       0.39513300
   151  C          0.45143000       0.25076190       0.76967140
   152  C          0.54857000       0.74923810       0.23032860
   153  H          0.43858300       0.32102000       0.75505900
   154  H          0.56141700       0.67898000       0.24494100
   155  H          0.39168200       0.23746400       0.80986700
   156  H          0.60831800       0.76253600       0.19013300
   157  C          0.63183000       0.11815190       0.83377130
   158  C          0.36817000       0.88184810       0.16622870
   159  H          0.56173400       0.08837400       0.85505900
   160  H          0.43826600       0.91162600       0.14494100
   161  C          0.28473000       0.27112000       0.67923150
   162  C          0.71527000       0.72888000       0.32076850
   163  H          0.30280200       0.33132700       0.65281300
   164  H          0.69719800       0.66867300       0.34718700
   165  H          0.21440800       0.28477300       0.71397600
   166  H          0.78559200       0.71522700       0.28602400
   167  H          0.25330300       0.23715700       0.64914200
   168  H          0.74669700       0.76284300       0.35085800
   169  C          0.80374000       0.97908000       0.89888170
   170  C          0.19626000       0.02092000       0.10111830
   171  H          0.89582600       0.94466900       0.88855400
   172  H          0.10417400       0.05533100       0.11144600
   173  H          0.73879500       0.94051800       0.89565900
   174  H          0.26120500       0.05948200       0.10434100
   175  H          0.79995600       0.99089000       0.94486900
   176  H          0.20004400       0.00911000       0.05513100
   177  C          0.82023000       0.09382000       0.51343160
   178  C          0.17977000       0.90618000       0.48656840
   179  H          0.85780800       0.02462200       0.52553000
   180  H          0.14219200       0.97537800       0.47447000
   181  H          0.89385200       0.12744000       0.51021700
   182  H          0.10614800       0.87256000       0.48978300
   183  H          0.77560000       0.10988500       0.46969500
   184  H          0.22440000       0.89011500       0.53030500
   185  N          0.39833000       0.84629170       0.94390120
   186  N          0.60167000       0.15370830       0.05609880
   187  N          0.37442000       0.81247160       0.82151120
   188  N          0.62558000       0.18752840       0.17848880
   189  H          0.37629600       0.86619300       0.83639200
   190  H          0.62370400       0.13380700       0.16360800
   191  H          0.36822000       0.82877200       0.77562700
   192  H          0.63178000       0.17122800       0.22437300
   193  C          0.52253000       0.69662000       0.91358140
   194  C          0.47747000       0.30338000       0.08641860
   195  C          0.25173000       0.77975190       0.85007140
   196  C          0.74827000       0.22024810       0.14992860
   197  C          0.50643000       0.74012000       0.83917140
   198  C          0.49357000       0.25988000       0.16082860
   199  H          0.58259300       0.77142000       0.82323400
   200  H          0.41740700       0.22858000       0.17676600
   201  H          0.51349000       0.68811900       0.81433900
   202  H          0.48651000       0.31188100       0.18566100
   203  C          0.59713000       0.60272000       0.93155150
   204  C          0.40287000       0.39728000       0.06844850
   205  H          0.62855500       0.56729600       0.89719300
   206  H          0.37144500       0.43270400       0.10280700
   207  C          0.47343000       0.74872000       0.96404140
   208  C          0.52657000       0.25128000       0.03595860
   209  C          0.19533000       0.79968190       0.91137150
   210  C          0.80467000       0.20031810       0.08862850
   211  C          0.62683000       0.55912000      -0.00086850
   212  C          0.37317000       0.44088000       0.00086850
   213  C          0.25123000       0.85662000       0.95225150
   214  C          0.74877000       0.14338000       0.04774850
   215  H          0.20556900       0.92513900       0.93840700
   216  H          0.79443100       0.07486100       0.06159300
   217  H          0.22879200       0.83541600       0.00078000
   218  H          0.77120800       0.16458400      -0.00078000
   219  C          0.57503000       0.61082000       0.04839150
   220  C          0.42497000       0.38918000       0.95160850
   221  H          0.59233100       0.58206000       0.09466700
   222  H          0.40766900       0.41794000       0.90533300
   223  C          0.19753000       0.72862000       0.81349160
   224  C          0.80247000       0.27138000       0.18650840
   225  H          0.24066900       0.71381700       0.77260400
   226  H          0.75933100       0.28618300       0.22739600
   227  C          0.49833000       0.70372000       0.03141150
   228  C          0.50167000       0.29628000       0.96858850
   229  H          0.46204600       0.73723200       0.06623800
   230  H          0.53795400       0.26276800       0.93376200
   231  C          0.44404000       0.91372000       0.97546160
   232  C          0.55596000       0.08628000       0.02453840
   233  H          0.41513900       0.90474700       0.02327800
   234  H          0.58486100       0.09525300       0.97672200
   235  H          0.40406900       0.97938300       0.95220500
   236  H          0.59593100       0.02061700       0.04779500
   237  H          0.54351800       0.90202500       0.97198300
   238  H          0.45648200       0.09797500       0.02801700
   239  C          0.07743000       0.76772000       0.93512180
   240  C          0.92257000       0.23228000       0.06487820
   241  H          0.03736600       0.77904700       0.97739800
   242  H          0.96263400       0.22095300       0.02260200
   243  C          0.07874000       0.69922000       0.83761180
   244  C          0.92126000       0.30078000       0.16238820
   245  H          0.03976000       0.66510100       0.81250500
   246  H          0.96024000       0.33489900       0.18749500
   247  C          0.71533000       0.45902000       0.01652180
   248  C          0.28467000       0.54098000       0.98347820
   249  H          0.68549500       0.41790900       0.99135900
   250  H          0.31450500       0.58209100       0.00864100
   251  H          0.70742400       0.43341300       0.06524000
   252  H          0.29257600       0.56658700       0.93476000
   253  H          0.81029100       0.46057500       0.00424500
   254  H          0.18970900       0.53942500      -0.00424500
   255  C          0.01713000       0.71922000       0.89752000
   256  C          0.98287000       0.28078000       0.10248000
   257  C          0.88686000       0.68883000       0.92323000
   258  C          0.11314000       0.31117000       0.07677000
   259  H          0.90486500       0.61880300       0.93499800
   260  H          0.09513500       0.38119700       0.06500200
   261  H          0.81867200       0.71308300       0.88777300
   262  H          0.18132800       0.28691700       0.11222700
   263  H          0.85265500       0.71496100       0.96334900
   264  H          0.14734500       0.28503900       0.03665100
   265  O          0.21073000       0.49562000       0.71156150
   266  O          0.78927000       0.50438000       0.28843850
