data_JAWHOF
_symmetry_space_group_name_H-M    'P1'
_symmetry_Int_Tables_number       1
loop_
_symmetry_equiv_pos_site_id
_symmetry_equiv_pos_as_xyz
1 x,y,z
_cell_length_a                   8.22327
_cell_length_b                   9.59018
_cell_length_c                   18.260015
_cell_angle_alpha                90.0
_cell_angle_beta                 98.28701
_cell_angle_gamma                90.0
loop_
_atom_site_label
_atom_site_type_symbol
_atom_site_fract_x
_atom_site_fract_y
_atom_site_fract_z
     1  N          0.00722000       0.05802000       0.57417100
     2  N          0.50722000       0.94198000       0.07417100
     3  O          0.09918190       0.23936150       0.66490900
     4  O          0.59918190       0.76063850       0.16490900
     5  S          0.06195600       0.09292500       0.65993300
     6  S          0.56195600       0.90707500       0.15993300
     7  O          0.18843190      -0.00185830       0.68938900
     8  O          0.68843190       0.00185830       0.18938900
     9  C          0.89112000       0.06235190       0.70708110
    10  C          0.39112000       0.93764810       0.20708110
    11  C          0.74113000       0.02353000       0.67015120
    12  C          0.24113000       0.97647000       0.17015120
    13  C          0.61073000      -0.00277000       0.70911130
    14  C          0.11073000       0.00277000       0.20911130
    15  C          0.63203000       0.00682000       0.78581110
    16  C          0.13203000      -0.00682000       0.28581110
    17  C          0.78423000       0.04822000       0.82228120
    18  C          0.28423000       0.95178000       0.32228120
    19  C          0.91433000       0.07622000       0.78359120
    20  C          0.41433000       0.92378000       0.28359120
    21  C          0.49383000       0.97122000       0.82941120
    22  C         -0.00617000       0.02878000       0.32941120
    23  C          0.42313000       0.82532000       0.81104130
    24  C          0.92313000       0.17468000       0.31104130
    25  N          0.31972000       0.78344170       0.86540100
    26  N          0.81972000       0.21655830       0.36540100
    27  C          0.16063000       0.77682000       0.85532120
    28  C          0.66063000       0.22318000       0.35532120
    29  C          0.07093000       0.74437190       0.91421120
    30  C          0.57093000       0.25562810       0.41421120
    31  C          0.15683000       0.72130190       0.98741120
    32  C          0.65683000       0.27869810       0.48741120
    33  C          0.05973000       0.70112000       0.04507130
    34  C          0.55973000       0.29888000       0.54507130
    35  C          0.89137000       0.70252000       0.03070150
    36  C          0.39137000       0.29748000       0.53070150
    37  C          0.80857000       0.72122000       0.95915160
    38  C          0.30857000       0.27878000       0.45915160
    39  C          0.89687000       0.74102000       0.90184140
    40  C          0.39687000       0.25898000       0.40184140
    41  O          0.31655180       0.71927150       0.00037800
    42  O          0.81655180       0.28072850       0.50037800
    43  H          0.93830000       0.12420000       0.55071300
    44  H          0.43830000       0.87580000       0.05071300
    45  H         -0.01870000      -0.01370000       0.56801600
    46  H          0.48130000       0.01370000       0.06801600
    47  H          0.71940000       0.02030000       0.61651700
    48  H          0.21940000       0.97970000       0.11651700
    49  H          0.50340000       0.96730000       0.67781500
    50  H          0.00340000       0.03270000       0.17781500
    51  H          0.80030000       0.05930000       0.87651500
    52  H          0.30030000       0.94070000       0.37651500
    53  H          0.02130000       0.10620000       0.80741300
    54  H          0.52130000       0.89380000       0.30741300
    55  H          0.40330000       0.03730000       0.81551300
    56  H          0.90330000       0.96270000       0.31551300
    57  H          0.53830000       0.97420000       0.88581300
    58  H          0.03830000       0.02580000       0.38581300
    59  H          0.36430000       0.82630000       0.76381500
    60  H          0.86430000       0.17370000       0.26381500
    61  H          0.50730000       0.76220000       0.81551200
    62  H          0.00730000       0.23780000       0.31551200
    63  H          0.35940000       0.76930000       0.91461800
    64  H          0.85940000       0.23070000       0.41461800
    65  H          0.10530000       0.79230000       0.81021500
    66  H          0.60530000       0.20770000       0.31021500
    67  H          0.11730000       0.68930000       0.09501500
    68  H          0.61730000       0.31070000       0.59501500
    69  H          0.82870000       0.69630000       0.06961500
    70  H          0.32870000       0.30370000       0.56961500
    71  H          0.68160000       0.72430000       0.94911900
    72  H          0.18160000       0.27570000       0.44911900
    73  H          0.84270000       0.75820000       0.85351300
    74  H          0.34270000       0.24180000       0.35351300
    75  N          0.02063000       0.50182000       0.58076130
    76  N          0.52063000       0.49818000       0.08076130
    77  O          0.12275180       0.64358160       0.68894900
    78  O          0.62275180       0.35641840       0.18894900
    79  S          0.97965500       0.62781500       0.63455300
    80  S          0.47965500       0.37218500       0.13455300
    81  O          0.92208190       0.74308150       0.58815900
    82  O          0.42208190       0.25691850       0.08815900
    83  C          0.81662000       0.56947190       0.68052110
    84  C          0.31662000       0.43052810       0.18052110
    85  C          0.85173000       0.47082000       0.73595130
    86  C          0.35173000       0.52918000       0.23595130
    87  C          0.72513000       0.41302000       0.76763130
    88  C          0.22513000       0.58698000       0.26763130
    89  C          0.56222000       0.45272000       0.74506110
    90  C          0.06222000       0.54728000       0.24506110
    91  C          0.53013000       0.55392000       0.69046110
    92  C          0.03013000       0.44608000       0.19046110
    93  C          0.65723000       0.61302000       0.65778110
    94  C          0.15723000       0.38698000       0.15778110
    95  C          0.42533000       0.38222000       0.77851130
    96  C          0.92533000       0.61778000       0.27851130
    97  C          0.44283000       0.39953000       0.86170130
    98  C          0.94283000       0.60047000       0.36170130
    99  N          0.32672000       0.31057180       0.89399900
   100  N          0.82672000       0.68942820       0.39399900
   101  C          0.19893000       0.36752000       0.91314120
   102  C          0.69893000       0.63248000       0.41314120
   103  C          0.07962000       0.28995190       0.94888110
   104  C          0.57962000       0.71004810       0.44888110
   105  C          0.10562000       0.14932000       0.96937100
   106  C          0.60562000       0.85068000       0.46937100
   107  C         -0.00753000       0.08072000       0.00666120
   108  C          0.49247000       0.91928000       0.50666120
   109  C          0.85617000       0.15113000       0.02413120
   110  C          0.35617000       0.84887000       0.52413120
   111  C          0.82797000       0.28923000       0.00360130
   112  C          0.32797000       0.71077000       0.50360130
   113  C          0.93967000       0.35762000       0.96648120
   114  C          0.43967000       0.64238000       0.46648120
   115  O          0.23866180       0.07826150       0.95290900
   116  O          0.73866180       0.92173850       0.45290900
   117  H          0.04340000       0.43330000       0.60681800
   118  H          0.54340000       0.56670000       0.10681800
   119  H          0.93930000       0.48120000       0.55191500
   120  H          0.43930000       0.51880000       0.05191500
   121  H          0.96330000       0.44230000       0.75111400
   122  H          0.46330000       0.55770000       0.25111400
   123  H          0.74930000       0.34320000       0.80531400
   124  H          0.24930000       0.65680000       0.30531400
   125  H          0.42130000       0.58620000       0.67101300
   126  H          0.92130000       0.41380000       0.17101300
   127  H          0.62830000       0.68220000       0.62431300
   128  H          0.12830000       0.31780000       0.12431300
   129  H          0.31130000       0.41730000       0.75171500
   130  H          0.81130000       0.58270000       0.25171500
   131  H          0.42230000       0.28130000       0.76421400
   132  H          0.92230000       0.71870000       0.26421400
   133  H          0.55840000       0.36930000       0.88401700
   134  H          0.05840000       0.63070000       0.38401700
   135  H          0.43130000       0.49430000       0.87491500
   136  H          0.93130000       0.50570000       0.37491500
   137  H          0.17830000       0.47030000       0.90931400
   138  H          0.67830000       0.52970000       0.40931400
   139  H          0.00930000       0.98070000       0.02131400
   140  H          0.50930000       0.01930000       0.52131400
   141  H          0.78360000       0.10530000       0.05221900
   142  H          0.28360000       0.89470000       0.55221900
   143  H          0.73860000       0.33930000       0.01881800
   144  H          0.23860000       0.66070000       0.51881800
   145  H          0.91970000       0.45120000       0.95341200
   146  H          0.41970000       0.54880000       0.45341200
   147  H          0.30240000       0.14230000       0.93081900
   148  H          0.80240000       0.85770000       0.43081900
