data_JAWVEJ
_symmetry_space_group_name_H-M    'P1'
_symmetry_Int_Tables_number       1
loop_
_symmetry_equiv_pos_site_id
_symmetry_equiv_pos_as_xyz
1 x,y,z
_cell_length_a                   5.536511
_cell_length_b                   6.480313
_cell_length_c                   12.5063
_cell_angle_alpha                101.803
_cell_angle_beta                 96.473
_cell_angle_gamma                106.053
loop_
_atom_site_label
_atom_site_type_symbol
_atom_site_fract_x
_atom_site_fract_y
_atom_site_fract_z
     1  C          0.10323190       0.96801160       0.10940800
     2  C          0.89676810       0.03198840       0.89059200
     3  H         -0.01420000       0.00960000       0.15650000
     4  H          0.01420000      -0.00960000       0.84350000
     5  C          0.95078000       0.77016170       0.01218900
     6  C          0.04922000       0.22983830       0.98781100
     7  H          0.06870000       0.71810000       0.97020000
     8  H          0.93130000       0.28190000       0.02980000
     9  H          0.85780000       0.65010000       0.04140000
    10  H          0.14220000       0.34990000       0.95860000
    11  C          0.23842000       0.16915170       0.06573800
    12  C          0.76158000       0.83084830       0.93426200
    13  H          0.36890000       0.13450000       0.02630000
    14  H          0.63110000       0.86550000       0.97370000
    15  H          0.32180000       0.29550000       0.12810000
    16  H          0.67820000       0.70450000       0.87190000
    17  C          0.30592000       0.90894170       0.17886800
    18  C          0.69408000       0.09105830       0.82113200
    19  O          0.39815170       0.76437150       0.14427700
    20  O          0.60184830       0.23562850       0.85572300
    21  O          0.38212150       0.04047130       0.28253600
    22  O          0.61787850       0.95952870       0.71746400
    23  H          0.50340000       0.00330000       0.31721700
    24  H          0.49660000      -0.00330000       0.68278300
    25  N          0.78815160      -0.01001860       0.42101700
    26  N          0.21184840       0.01001860       0.57898300
    27  C          0.82232000       0.65520170       0.30699900
    28  C          0.17768000       0.34479830       0.69300100
    29  H          0.68250000       0.64540000       0.25530000
    30  H          0.31750000       0.35460000       0.74470000
    31  C          0.94602000       0.49835180       0.29008900
    32  C          0.05398000       0.50164820       0.70991100
    33  H          0.88770000       0.38150000       0.22690000
    34  H          0.11230000       0.61850000       0.77310000
    35  C          0.16372000       0.51069180       0.36800900
    36  C          0.83628000       0.48930820       0.63199100
    37  H          0.24660000       0.40380000       0.35400000
    38  H          0.75340000       0.59620000       0.64600000
    39  C          0.25072000       0.67891170       0.46295900
    40  C          0.74928000       0.32108830       0.53704100
    41  H          0.39120000       0.68490000       0.51320000
    42  H          0.60880000       0.31510000       0.48680000
    43  C          0.90949190       0.83466170       0.40483800
    44  C          0.09050810       0.16533830       0.59516200
    45  C          0.87435180       0.15449160       0.51513800
    46  C          0.12564820       0.84550840       0.48486200
