data_JAYGEZ
_symmetry_space_group_name_H-M    'P1'
_symmetry_Int_Tables_number       1
loop_
_symmetry_equiv_pos_site_id
_symmetry_equiv_pos_as_xyz
1 x,y,z
_cell_length_a                   14.8505911
_cell_length_b                   4.349803
_cell_length_c                   26.75032
_cell_angle_alpha                90.0
_cell_angle_beta                 96.43927
_cell_angle_gamma                90.0
loop_
_atom_site_label
_atom_site_type_symbol
_atom_site_fract_x
_atom_site_fract_y
_atom_site_fract_z
     1  I          0.40265311       0.34532400       0.38863050
     2  I          0.09734689       0.34532400       0.61136950
     3  I          0.90265311       0.84532400       0.88863050
     4  I          0.59734689       0.84532400       0.11136950
     5  I          0.59734689       0.65467600       0.61136950
     6  I          0.90265311       0.65467600       0.38863050
     7  I          0.09734689       0.15467600       0.11136950
     8  I          0.40265311       0.15467600       0.88863050
     9  F          0.32179120       0.91385000       0.46857700
    10  F          0.17820880       0.91385000       0.53142300
    11  F          0.82179120       0.41385000       0.96857700
    12  F          0.67820880       0.41385000       0.03142300
    13  F          0.67820880       0.08615000       0.53142300
    14  F          0.82179120       0.08615000       0.46857700
    15  F          0.17820880       0.58615000       0.03142300
    16  F          0.32179120       0.58615000       0.96857700
    17  F          0.39490130       0.63536000       0.55211700
    18  F          0.10509870       0.63536000       0.44788300
    19  F          0.89490130       0.13536000       0.05211700
    20  F          0.60509870       0.13536000       0.94788300
    21  F          0.60509870       0.36464000       0.44788300
    22  F          0.89490130       0.36464000       0.55211700
    23  F          0.10509870       0.86464000       0.94788300
    24  F          0.39490130       0.86464000       0.05211700
    25  C          0.46112000       0.14406000       0.45515110
    26  C          0.03888000       0.14406000       0.54484890
    27  C          0.96112000       0.64406000       0.95515110
    28  C          0.53888000       0.64406000       0.04484890
    29  C          0.53888000       0.85594000       0.54484890
    30  C          0.96112000       0.85594000       0.45515110
    31  C          0.03888000       0.35594000       0.04484890
    32  C          0.46112000       0.35594000       0.95515110
    33  C          0.41016180       0.95843000       0.48349100
    34  C          0.08983820       0.95843000       0.51650900
    35  C          0.91016180       0.45843000       0.98349100
    36  C          0.58983820       0.45843000       0.01650900
    37  C          0.58983820       0.04157000       0.51650900
    38  C          0.91016180       0.04157000       0.48349100
    39  C          0.08983820       0.54157000       0.01650900
    40  C          0.41016180       0.54157000       0.98349100
    41  C          0.44812000       0.81724000       0.52707110
    42  C          0.05188000       0.81724000       0.47292890
    43  C          0.94812000       0.31724000       0.02707110
    44  C          0.55188000       0.31724000       0.97292890
    45  C          0.55188000       0.18276000       0.47292890
    46  C          0.94812000       0.18276000       0.52707110
    47  C          0.05188000       0.68276000       0.97292890
    48  C          0.44812000       0.68276000       0.02707110
    49  N          0.29797160       0.61835000       0.29387900
    50  N          0.20202840       0.61835000       0.70612100
    51  N          0.79797160       0.11835000       0.79387900
    52  N          0.70202840       0.11835000       0.20612100
    53  N          0.70202840       0.38165000       0.70612100
    54  N          0.79797160       0.38165000       0.29387900
    55  N          0.20202840       0.88165000       0.20612100
    56  N          0.29797160       0.88165000       0.79387900
    57  C          0.32074170       0.55736000       0.24769100
    58  C          0.17925830       0.55736000       0.75230900
    59  C          0.82074170       0.05736000       0.74769100
    60  C          0.67925830       0.05736000       0.25230900
    61  C          0.67925830       0.44264000       0.75230900
    62  C          0.82074170       0.44264000       0.24769100
    63  C          0.17925830       0.94264000       0.25230900
    64  C          0.32074170       0.94264000       0.74769100
    65  C          0.22728180       0.80996000       0.29672110
    66  C          0.27271820       0.80996000       0.70327890
    67  C          0.72728180       0.30996000       0.79672110
    68  C          0.77271820       0.30996000       0.20327890
    69  C          0.77271820       0.19004000       0.70327890
    70  C          0.72728180       0.19004000       0.29672110
    71  C          0.27271820       0.69004000       0.20327890
    72  C          0.22728180       0.69004000       0.79672110
    73  C          0.19862000       0.88137000       0.34481110
    74  C          0.30138000       0.88137000       0.65518890
    75  C          0.69862000       0.38137000       0.84481110
    76  C          0.80138000       0.38137000       0.15518890
    77  C          0.80138000       0.11863000       0.65518890
    78  C          0.69862000       0.11863000       0.34481110
    79  C          0.30138000       0.61863000       0.15518890
    80  C          0.19862000       0.61863000       0.84481110
    81  H          0.22872000       0.79487000       0.37380110
    82  H          0.27128000       0.79487000       0.62619890
    83  H          0.72872000       0.29487000       0.87380110
    84  H          0.77128000       0.29487000       0.12619890
    85  H          0.77128000       0.20513000       0.62619890
    86  H          0.72872000       0.20513000       0.37380110
    87  H          0.27128000       0.70513000       0.12619890
    88  H          0.22872000       0.70513000       0.87380110
    89  C          0.12822000       0.07358000       0.34824110
    90  C          0.37178000       0.07358000       0.65175890
    91  C          0.62822000       0.57358000       0.84824110
    92  C          0.87178000       0.57358000       0.15175890
    93  C          0.87178000       0.92642000       0.65175890
    94  C          0.62822000       0.92642000       0.34824110
    95  C          0.37178000       0.42642000       0.15175890
    96  C          0.12822000       0.42642000       0.84824110
    97  H          0.11012000       0.11838000       0.37961110
    98  H          0.38988000       0.11838000       0.62038890
    99  H          0.61012000       0.61838000       0.87961110
   100  H          0.88988000       0.61838000       0.12038890
   101  H          0.88988000       0.88162000       0.62038890
   102  H          0.61012000       0.88162000       0.37961110
   103  H          0.38988000       0.38162000       0.12038890
   104  H          0.11012000       0.38162000       0.87961110
   105  C          0.08132000       0.20828000       0.30425120
   106  C          0.41868000       0.20828000       0.69574880
   107  C          0.58132000       0.70828000       0.80425120
   108  C          0.91868000       0.70828000       0.19574880
   109  C          0.91868000       0.79172000       0.69574880
   110  C          0.58132000       0.79172000       0.30425120
   111  C          0.41868000       0.29172000       0.19574880
   112  C          0.08132000       0.29172000       0.80425120
   113  H          0.03302000       0.34048000       0.30742120
   114  H          0.46698000       0.34048000       0.69257880
   115  H          0.53302000       0.84048000       0.80742120
   116  H          0.96698000       0.84048000       0.19257880
   117  H          0.96698000       0.65952000       0.69257880
   118  H          0.53302000       0.65952000       0.30742120
   119  H          0.46698000       0.15952000       0.19257880
   120  H          0.03302000       0.15952000       0.80742120
   121  C          0.10562000       0.14776000       0.25766120
   122  C          0.39438000       0.14776000       0.74233880
   123  C          0.60562000       0.64776000       0.75766120
   124  C          0.89438000       0.64776000       0.24233880
   125  C          0.89438000       0.85224000       0.74233880
   126  C          0.60562000       0.85224000       0.25766120
   127  C          0.39438000       0.35224000       0.24233880
   128  C          0.10562000       0.35224000       0.75766120
   129  H          0.07452000       0.23926000       0.22942120
   130  H          0.42548000       0.23926000       0.77057880
   131  H          0.57452000       0.73926000       0.72942120
   132  H          0.92548000       0.73926000       0.27057880
   133  H          0.92548000       0.76074000       0.77057880
   134  H          0.57452000       0.76074000       0.22942120
   135  H          0.42548000       0.26074000       0.27057880
   136  H          0.07452000       0.26074000       0.72942120
