data_JAYGEZ02
_symmetry_space_group_name_H-M    'P1'
_symmetry_Int_Tables_number       1
loop_
_symmetry_equiv_pos_site_id
_symmetry_equiv_pos_as_xyz
1 x,y,z
_cell_length_a                   5.77634
_cell_length_b                   6.71904
_cell_length_c                   11.70947
_cell_angle_alpha                76.6802
_cell_angle_beta                 78.2352
_cell_angle_gamma                80.0542
loop_
_atom_site_label
_atom_site_type_symbol
_atom_site_fract_x
_atom_site_fract_y
_atom_site_fract_z
     1  C          0.13182000       0.13812000       0.51377120
     2  C          0.86818000       0.86188000       0.48622880
     3  C          0.26223000       0.28343000       0.53539150
     4  C          0.73777000       0.71657000       0.46460850
     5  H          0.40754100       0.30903000       0.48725700
     6  H          0.59245900       0.69097000       0.51274300
     7  C          0.17403000       0.38473000       0.62651170
     8  C          0.82597000       0.61527000       0.37348830
     9  H          0.26069200       0.47869500       0.64027900
    10  H          0.73930800       0.52130500       0.35972100
    11  C          0.95207000       0.34923000       0.70071160
    12  C          0.04793000       0.65077000       0.29928840
    13  H          0.89443500       0.42154900       0.76175500
    14  H          0.10556500       0.57845100       0.23824500
    15  C          0.82237000       0.21093000       0.68382140
    16  C          0.17763000       0.78907000       0.31617860
    17  H          0.67726100       0.18899200       0.73321900
    18  H          0.32273900       0.81100800       0.26678100
    19  C          0.90888000       0.09952000       0.59050120
    20  C          0.09112000       0.90048000       0.40949880
    21  N          0.21982000       0.03822000       0.42423110
    22  N          0.78018000       0.96178000       0.57576890
    23  C          0.84003000       0.38132000       0.08533120
    24  C          0.15997000       0.61868000       0.91466880
    25  C          0.78073000       0.59183000       0.04564130
    26  C          0.21927000       0.40817000       0.95435870
    27  C          0.93713000       0.70862000       0.96232870
    28  C          0.06287000       0.29138000       0.03767130
    29  F          0.56752000       0.68728190       0.08779110
    30  F          0.43248000       0.31271810       0.91220890
    31  F          0.86932000       0.91058170       0.92839890
    32  F          0.13068000       0.08941830       0.07160110
    33  I          0.60566200       0.21249200       0.21659200
    34  I          0.39433800       0.78750800       0.78340800
