data_JEDNIT
_symmetry_space_group_name_H-M    'P1'
_symmetry_Int_Tables_number       1
loop_
_symmetry_equiv_pos_site_id
_symmetry_equiv_pos_as_xyz
1 x,y,z
_cell_length_a                   9.30133
_cell_length_b                   10.94034
_cell_length_c                   11.78634
_cell_angle_alpha                96.9123
_cell_angle_beta                 92.2943
_cell_angle_gamma                101.7333
loop_
_atom_site_label
_atom_site_type_symbol
_atom_site_fract_x
_atom_site_fract_y
_atom_site_fract_z
     1  B          0.56524000       0.79974000       0.73293000
     2  B          0.43476000       0.20026000       0.26707000
     3  F          0.54604000       0.69943000       0.65223000
     4  F          0.45396000       0.30057000       0.34777000
     5  F          0.70475000       0.86055000       0.73904000
     6  F          0.29525000       0.13945000       0.26096000
     7  F          0.47839000       0.86487000       0.71527000
     8  F          0.52161000       0.13513000       0.28473000
     9  F          0.54424000       0.76075000       0.83663000
    10  F          0.45576000       0.23925000       0.16337000
    11  C          0.78166000       0.45903000       0.20064000
    12  C          0.21834000       0.54097000       0.79936000
    13  H          0.74361600       0.51344500       0.25765200
    14  H          0.25638400       0.48655500       0.74234800
    15  H          0.72456700       0.37396100       0.19839300
    16  H          0.27543300       0.62603900       0.80160700
    17  C          0.76876000       0.50193000       0.08724000
    18  C          0.23124000       0.49807000       0.91276000
    19  H          0.81947900       0.45514400       0.03259800
    20  H          0.18052100       0.54485600       0.96740200
    21  H          0.66592700       0.48610200       0.06031000
    22  H          0.33407300       0.51389800       0.93969000
    23  C          0.82246000       0.67853000       0.98757000
    24  C          0.17754000       0.32147000       0.01243000
    25  H          0.72131800       0.65971000       0.95601400
    26  H          0.27868200       0.34029000       0.04398600
    27  H          0.88099100       0.63906400       0.93381200
    28  H          0.11900900       0.36093600       0.06618800
    29  C          0.87996000       0.81753000       0.00763000
    30  C          0.12004000       0.18247000      -0.00763000
    31  H          0.86791900       0.85197700       0.93665000
    32  H          0.13208100       0.14802300       0.06335000
    33  H          0.82211200       0.85487400       0.06331700
    34  H          0.17788800       0.14512600       0.93668300
    35  C          0.13154000       0.84783000       0.95997000
    36  C          0.86846000       0.15217000       0.04003000
    37  H          0.11509600       0.90481700       0.90619500
    38  H          0.88490400       0.09518300       0.09380500
    39  H          0.11515800       0.76344600       0.91881400
    40  H          0.88484200       0.23655400       0.08118600
    41  C          0.28474000       0.88533000       0.01103000
    42  C          0.71526000       0.11467000      -0.01103000
    43  H          0.35238200       0.89731800       0.95083600
    44  H          0.64761800       0.10268200       0.04916400
    45  H          0.29706900       0.96431000       0.06116100
    46  H          0.70293100       0.03569000       0.93883900
    47  C          0.46293000       0.81853000       0.12253000
    48  C          0.53707000       0.18147000       0.87747000
    49  H          0.47759400       0.89250700       0.17939200
    50  H          0.52240600       0.10749300       0.82060800
    51  H          0.53057200       0.83617000       0.06318200
    52  H          0.46942800       0.16383000       0.93681800
    53  C          0.49193000       0.70913000       0.17683000
    54  C          0.50807000       0.29087000       0.82317000
    55  H          0.47218500       0.63427300       0.12067900
    56  H          0.52781500       0.36572700       0.87932100
    57  H          0.59448600       0.72496900       0.20449800
    58  H          0.40551400       0.27503100       0.79550200
    59  C          0.42034000       0.58284000       0.32174000
    60  C          0.57966000       0.41716000       0.67826000
    61  H          0.52314200       0.59116300       0.34589300
    62  H          0.47685800       0.40883700       0.65410700
    63  H          0.38992000       0.50672400       0.26763300
    64  H          0.61008000       0.49327600       0.73236700
    65  C          0.32814000       0.57584000       0.42343000
    66  C          0.67186000       0.42416000       0.57657000
    67  H          0.34940500       0.50988100       0.46547400
    68  H          0.65059500       0.49011900       0.53452600
    69  H          0.35513100       0.65487200       0.47377200
    70  H          0.64486900       0.34512800       0.52622800
    71  C          0.10815000       0.42113000       0.36263000
    72  C          0.89185000       0.57887000       0.63737000
    73  H          0.12108400       0.37535100       0.42650200
    74  H          0.87891600       0.62464900       0.57349800
    75  H          0.15452300       0.38576500       0.29784500
    76  H          0.84547700       0.61423500       0.70215500
    77  C          0.94965000       0.40944000       0.33273000
    78  C          0.05035000       0.59056000       0.66727000
    79  H          0.90040200       0.32136900       0.32233100
    80  H          0.09959800       0.67863100       0.67766900
    81  H          0.90588100       0.45309500       0.39426900
    82  H          0.09411900       0.54690500       0.60573100
    83  O          0.93198000       0.46206190       0.23040170
    84  O          0.06802000       0.53793810       0.76959830
    85  O          0.83088000       0.63237190       0.09487190
    86  O          0.16912000       0.36762810       0.90512810
    87  O          0.03182000       0.85139190       0.04807170
    88  O          0.96818000       0.14860810       0.95192830
    89  O          0.31652000       0.78957170       0.07464170
    90  O          0.68348000       0.21042830       0.92535830
    91  O          0.40052000       0.68962000       0.26955190
    92  O          0.59948000       0.31038000       0.73044810
    93  O          0.17392000       0.55082000       0.39251180
    94  O          0.82608000       0.44918000       0.60748820
    95  C          0.12323000       0.84653000       0.32933000
    96  C          0.87677000       0.15347000       0.67067000
    97  H          0.18243700       0.91562100       0.29661700
    98  H          0.81756300       0.08437900       0.70338300
    99  H          0.17560200       0.83558300       0.39891100
   100  H          0.82439800       0.16441700       0.60108900
   101  C          0.97863000       0.87872000       0.35802000
   102  C          0.02137000       0.12128000       0.64198000
   103  C          0.94124000      -0.01327000       0.32883000
   104  C          0.05876000       0.01327000       0.67117000
   105  H          0.00549300       0.04210500       0.29088500
   106  H         -0.00549300       0.95789500       0.70911500
   107  C          0.80755000       0.01104000       0.35684000
   108  C          0.19245000      -0.01104000       0.64316000
   109  H          0.77842900       0.08217300       0.33600500
   110  H          0.22157100       0.91782700       0.66399500
   111  C          0.71774000       0.93024000       0.41533000
   112  C          0.28226000       0.06976000       0.58467000
   113  H          0.62702800       0.94552000       0.43638300
   114  H          0.37297200       0.05448000       0.56361700
   115  C          0.76424000       0.82524000       0.44243000
   116  C          0.23576000       0.17476000       0.55757000
   117  H          0.70285900       0.77039500       0.48289300
   118  H          0.29714100       0.22960500       0.51710700
   119  N          0.89173000       0.79743000       0.41402000
   120  N          0.10827000       0.20257000       0.58598000
   121  N          0.10323000       0.73072000       0.24762000
   122  N          0.89677000       0.26928000       0.75238000
   123  H          0.05450000       0.73840000       0.19140000
   124  H          0.94550000       0.26160000       0.80860000
   125  H          0.18950000       0.71340000       0.23440000
   126  H          0.81050000       0.28660000       0.76560000
   127  H          0.06850000       0.67540000       0.28340000
   128  H          0.93150000       0.32460000       0.71660000
