data_JEGBED
_symmetry_space_group_name_H-M    'P1'
_symmetry_Int_Tables_number       1
loop_
_symmetry_equiv_pos_site_id
_symmetry_equiv_pos_as_xyz
1 x,y,z
_cell_length_a                   7.43609
_cell_length_b                   19.6132
_cell_length_c                   12.510715
_cell_angle_alpha                90.0
_cell_angle_beta                 107.0632
_cell_angle_gamma                90.0
loop_
_atom_site_label
_atom_site_type_symbol
_atom_site_fract_x
_atom_site_fract_y
_atom_site_fract_z
     1  Br         0.97432383       0.52279160       0.15121310
     2  Br         0.02567617       0.02279160       0.34878690
     3  Br         0.02567617       0.47720840       0.84878690
     4  Br         0.97432383       0.97720840       0.65121310
     5  C          0.15055170       0.29766600       0.24852100
     6  C          0.84944830       0.79766600       0.25147900
     7  C          0.84944830       0.70233400       0.75147900
     8  C          0.15055170       0.20233400       0.74852100
     9  C          0.21462180       0.35021600       0.32570100
    10  C          0.78537820       0.85021600       0.17429900
    11  C          0.78537820       0.64978400       0.67429900
    12  C          0.21462180       0.14978400       0.82570100
    13  H          0.29290000       0.34000000       0.39880000
    14  H          0.70710000       0.84000000       0.10120000
    15  H          0.70710000       0.66000000       0.60120000
    16  H          0.29290000       0.16000000       0.89880000
    17  C          0.16464180       0.41722600       0.29620100
    18  C          0.83535820       0.91722600       0.20379900
    19  C          0.83535820       0.58277400       0.70379900
    20  C          0.16464180       0.08277400       0.79620100
    21  H          0.20880000       0.45300000       0.34850000
    22  H          0.79120000       0.95300000       0.15150000
    23  H          0.79120000       0.54700000       0.65150000
    24  H          0.20880000       0.04700000       0.84850000
    25  C          0.04903180       0.43150600       0.18903100
    26  C          0.95096820       0.93150600       0.31096900
    27  C          0.95096820       0.56849400       0.81096900
    28  C          0.04903180       0.06849400       0.68903100
    29  C         -0.01602000       0.38025700       0.11126110
    30  C          0.01602000       0.88025700       0.38873890
    31  C          0.01602000       0.61974300       0.88873890
    32  C         -0.01602000       0.11974300       0.61126110
    33  H          0.90520000       0.39060000       0.03840000
    34  H          0.09480000       0.89060000       0.46160000
    35  H          0.09480000       0.60940000       0.96160000
    36  H          0.90520000       0.10940000       0.53840000
    37  C          0.03612000       0.31318700       0.14167100
    38  C          0.96388000       0.81318700       0.35832900
    39  C          0.96388000       0.68681300       0.85832900
    40  C          0.03612000       0.18681300       0.64167100
    41  H         -0.00700000       0.27760000       0.08880000
    42  H          0.00700000       0.77760000       0.41120000
    43  H          0.00700000       0.72240000       0.91120000
    44  H         -0.00700000       0.22240000       0.58880000
    45  C          0.19824180       0.22623600       0.28147100
    46  C          0.80175820       0.72623600       0.21852900
    47  C          0.80175820       0.77376400       0.71852900
    48  C          0.19824180       0.27376400       0.78147100
    49  N          0.28278160       0.21093500       0.38455900
    50  N          0.71721840       0.71093500       0.11544100
    51  N          0.71721840       0.78906500       0.61544100
    52  N          0.28278160       0.28906500       0.88455900
    53  O          0.31160150       0.14246500       0.40126800
    54  O          0.68839850       0.64246500       0.09873200
    55  O          0.68839850       0.85753500       0.59873200
    56  O          0.31160150       0.35753500       0.90126800
    57  H          0.37330000       0.14091000       0.48141600
    58  H          0.62670000       0.64091000       0.01858400
    59  H          0.62670000       0.85909000       0.51858400
    60  H          0.37330000       0.35909000       0.98141600
    61  C          0.14213190       0.17378600       0.19623100
    62  C          0.85786810       0.67378600       0.30376900
    63  C          0.85786810       0.82621400       0.80376900
    64  C          0.14213190       0.32621400       0.69623100
    65  N          0.09420190       0.13391600       0.12673100
    66  N          0.90579810       0.63391600       0.37326900
    67  N          0.90579810       0.86608400       0.87326900
    68  N          0.09420190       0.36608400       0.62673100
    69  N          0.66052140       0.09061500       0.78213800
    70  N          0.33947860       0.59061500       0.71786200
    71  N          0.33947860       0.90938500       0.21786200
    72  N          0.66052140       0.40938500       0.28213800
    73  C          0.54047170       0.07572600       0.67877100
    74  C          0.45952830       0.57572600       0.82122900
    75  C          0.45952830       0.92427400       0.32122900
    76  C          0.54047170       0.42427400       0.17877100
    77  N          0.49012150       0.13075600       0.61590900
    78  N          0.50987850       0.63075600       0.88409100
    79  N          0.50987850       0.86924400       0.38409100
    80  N          0.49012150       0.36924400       0.11590900
    81  C          0.57955180       0.18504600       0.68139100
    82  C          0.42044820       0.68504600       0.81860900
    83  C          0.42044820       0.81495400       0.31860900
    84  C          0.57955180       0.31495400       0.18139100
    85  C          0.57616190       0.25454700       0.65627110
    86  C          0.42383810       0.75454700       0.84372890
    87  C          0.42383810       0.74545300       0.34372890
    88  C          0.57616190       0.24545300       0.15627110
    89  H          0.50480000       0.27150000       0.58540000
    90  H          0.49520000       0.77150000       0.91460000
    91  H          0.49520000       0.72850000       0.41460000
    92  H          0.50480000       0.22850000       0.08540000
    93  C          0.68112000       0.29772700       0.73886110
    94  C          0.31888000       0.79772700       0.76113890
    95  C          0.31888000       0.70227300       0.26113890
    96  C          0.68112000       0.20227300       0.23886110
    97  H          0.68140000       0.34530000       0.72430000
    98  H          0.31860000       0.84530000       0.77570000
    99  H          0.31860000       0.65470000       0.27570000
   100  H          0.68140000       0.15470000       0.22430000
   101  C          0.78682000       0.27267700       0.84356110
   102  C          0.21318000       0.77267700       0.65643890
   103  C          0.21318000       0.72732300       0.15643890
   104  C          0.78682000       0.22732300       0.34356110
   105  H          0.85720000       0.30380000       0.89810000
   106  H          0.14280000       0.80380000       0.60190000
   107  H          0.14280000       0.69620000       0.10190000
   108  H          0.85720000       0.19620000       0.39810000
   109  C          0.79169190       0.20389700       0.86989100
   110  C          0.20830810       0.70389700       0.63010900
   111  C          0.20830810       0.79610300       0.13010900
   112  C          0.79169190       0.29610300       0.36989100
   113  H          0.86290000       0.18710000       0.94090000
   114  H          0.13710000       0.68710000       0.55910000
   115  H          0.13710000       0.81290000       0.05910000
   116  H          0.86290000       0.31290000       0.44090000
   117  C          0.68641170       0.16078600       0.78645100
   118  C          0.31358830       0.66078600       0.71354900
   119  C          0.31358830       0.83921400       0.21354900
   120  C          0.68641170       0.33921400       0.28645100
   121  C          0.47218170       0.00566700       0.64405100
   122  C          0.52781830       0.50566700       0.85594900
   123  C          0.52781830      -0.00566700       0.35594900
   124  C          0.47218170       0.49433300       0.14405100
   125  H          0.39440000       0.98970000       0.69020000
   126  H          0.60560000       0.48970000       0.80980000
   127  H          0.60560000       0.01030000       0.30980000
   128  H          0.39440000       0.51030000       0.19020000
   129  H          0.58000000       0.97510000       0.65380000
   130  H          0.42000000       0.47510000       0.84620000
   131  H          0.42000000       0.02490000       0.34620000
   132  H          0.58000000       0.52490000       0.15380000
   133  H          0.39700000       0.00600000       0.56530000
   134  H          0.60300000       0.50600000       0.93470000
   135  H          0.60300000      -0.00600000       0.43470000
   136  H          0.39700000       0.49400000       0.06530000
   137  C          0.62207170       0.01989600       0.93860100
   138  C          0.37792830       0.51989600       0.56139900
   139  C          0.37792830       0.98010400       0.06139900
   140  C          0.62207170       0.48010400       0.43860100
   141  C          0.54009170       0.95522400       0.92419100
   142  C          0.45990830       0.45522400       0.57580900
   143  C          0.45990830       0.04477600       0.07580900
   144  C          0.54009170       0.54477600       0.42419100
   145  H          0.56770000       0.92430000       0.87270000
   146  H          0.43230000       0.42430000       0.62730000
   147  H          0.43230000       0.07570000       0.12730000
   148  H          0.56770000       0.57570000       0.37270000
   149  C          0.58191170       0.06442600       0.01549900
   150  C          0.41808830       0.56442600       0.48450100
   151  C          0.41808830       0.93557400       0.98450100
   152  C          0.58191170       0.43557400       0.51549900
   153  H          0.63800000       0.10840000       0.02680000
   154  H          0.36200000       0.60840000       0.47320000
   155  H          0.36200000       0.89160000       0.97320000
   156  H          0.63800000       0.39160000       0.52680000
   157  C          0.75052170       0.04187600       0.87071100
   158  C          0.24947830       0.54187600       0.62928900
   159  C          0.24947830       0.95812400       0.12928900
   160  C          0.75052170       0.45812400       0.37071100
   161  H          0.86510000       0.06290000       0.92130000
   162  H          0.13490000       0.56290000       0.57870000
   163  H          0.13490000       0.93710000       0.07870000
   164  H          0.86510000       0.43710000       0.42130000
   165  H          0.78970000       0.00110000       0.83650000
   166  H          0.21030000       0.50110000       0.66350000
   167  H          0.21030000      -0.00110000       0.16350000
   168  H          0.78970000       0.49890000       0.33650000
