data_JEGKOY
_symmetry_space_group_name_H-M    'P1'
_symmetry_Int_Tables_number       1
loop_
_symmetry_equiv_pos_site_id
_symmetry_equiv_pos_as_xyz
1 x,y,z
_cell_length_a                   7.616015
_cell_length_b                   9.688019
_cell_length_c                   19.2984
_cell_angle_alpha                87.843
_cell_angle_beta                 83.143
_cell_angle_gamma                73.583
loop_
_atom_site_label
_atom_site_type_symbol
_atom_site_fract_x
_atom_site_fract_y
_atom_site_fract_z
     1  I          0.19773700       0.18899400       0.85815300
     2  I          0.80226300       0.81100600       0.14184700
     3  F          0.10845000       0.69434000       0.72556180
     4  F          0.89155000       0.30566000       0.27443820
     5  I          0.84522400       0.93279400       0.82965200
     6  I          0.15477600       0.06720600       0.17034800
     7  F          0.24255000       0.41274000       0.73573190
     8  F          0.75745000       0.58726000       0.26426810
     9  F          0.91235000       0.42343000       0.95921180
    10  F          0.08765000       0.57657000       0.04078820
    11  F          0.78385000       0.70714000       0.95065180
    12  F          0.21615000       0.29286000       0.04934820
    13  C          0.06028000       0.62976000       0.78373000
    14  C          0.93972000       0.37024000       0.21627000
    15  C          0.12778000       0.48356000       0.78963000
    16  C          0.87222000       0.51644000       0.21037000
    17  C          0.08528000       0.40895000       0.84853000
    18  C          0.91472000       0.59105000       0.15147000
    19  C          0.96482000       0.49026000       0.90173000
    20  C          0.03518000       0.50974000       0.09827000
    21  C          0.89742000       0.63556000       0.89683000
    22  C          0.10258000       0.36444000       0.10317000
    23  C          0.94232000       0.71035000       0.83773000
    24  C          0.05768000       0.28965000       0.16227000
    25  C          0.11507000       0.08415000       0.58103000
    26  C          0.88493000       0.91585000       0.41897000
    27  O          0.72037000       0.24214000       0.81343000
    28  O          0.27963000       0.75786000       0.18657000
    29  O          0.31096000       0.87564000       0.91032000
    30  O          0.68904000       0.12436000       0.08968000
    31  C          0.18038000       0.96414000       0.62733000
    32  C          0.81962000       0.03586000       0.37267000
    33  H          0.13560000       0.97160000       0.67440000
    34  H          0.86440000       0.02840000       0.32560000
    35  C          0.30438000       0.84274000       0.60333000
    36  C          0.69562000       0.15726000       0.39667000
    37  H          0.34260000       0.76810000       0.63470000
    38  H          0.65740000       0.23190000       0.36530000
    39  C          0.37988000       0.82254000       0.53243000
    40  C          0.62012000       0.17746000       0.46757000
    41  C          0.31928000       0.93584000       0.48553000
    42  C          0.68072000       0.06416000       0.51447000
    43  C          0.18707000       0.06776000       0.51003000
    44  C          0.81293000       0.93224000       0.48997000
    45  C          0.50458000       0.69604000       0.50794000
    46  C          0.49542000       0.30396000       0.49206000
    47  H          0.54330000       0.62030000       0.53870000
    48  H          0.45670000       0.37970000       0.46130000
    49  C          0.57329000       0.68073000       0.43694000
    50  C          0.42671000       0.31927000       0.56306000
    51  H          0.65690000       0.59510000       0.42080000
    52  H          0.34310000       0.40490000       0.57920000
    53  C          0.51739000       0.79132000       0.39164000
    54  C          0.48261000       0.20868000       0.60836000
    55  H          0.56550000       0.78060000       0.34480000
    56  H          0.43450000       0.21940000       0.65520000
    57  C          0.38938000       0.92043000       0.41373000
    58  C          0.61062000       0.07957000       0.58627000
    59  C          0.32569000       0.03668000       0.36744000
    60  C          0.67431000       0.96332000       0.63256000
    61  H          0.37050000       0.02710000       0.32030000
    62  H          0.62950000       0.97290000       0.67970000
    63  C          0.20249000       0.15947000       0.38983000
    64  C          0.79751000       0.84053000       0.61017000
    65  H          0.16340000       0.23300000       0.35800000
    66  H          0.83660000       0.76700000       0.64200000
    67  C          0.12928000       0.17996000       0.46213000
    68  C          0.87072000       0.82004000       0.53787000
    69  C         -0.00082000       0.30656000       0.48553000
    70  C          0.00082000       0.69344000       0.51447000
    71  H          0.95870000       0.38040000       0.45400000
    72  H          0.04130000       0.61960000       0.54600000
    73  C          0.92988000       0.32336000       0.55434000
    74  C          0.07012000       0.67664000       0.44566000
    75  H          0.84480000       0.40970000       0.56870000
    76  H          0.15520000       0.59030000       0.43130000
    77  C          0.98257000       0.21445000       0.60423000
    78  C          0.01743000       0.78555000       0.39577000
    79  C          0.89738000       0.23316000       0.67673000
    80  C          0.10262000       0.76684000       0.32327000
    81  H          0.93460000       0.15490000       0.70620000
    82  H          0.06540000       0.84510000       0.29380000
    83  C          0.77349000       0.34816000       0.70543000
    84  C          0.22651000       0.65184000       0.29457000
    85  H          0.73470000       0.42970000       0.67800000
    86  H          0.26530000       0.57030000       0.32200000
    87  C          0.69658000       0.35076000       0.77793000
    88  C          0.30342000       0.64924000       0.22207000
    89  C          0.58528000       0.49025000       0.81013000
    90  C          0.41472000       0.50975000       0.18987000
    91  C          0.51028000       0.49066000       0.88043000
    92  C          0.48972000       0.50934000       0.11957000
    93  H          0.52420000       0.40330000       0.90390000
    94  H          0.47580000       0.59670000       0.09610000
    95  C          0.41788000       0.61466000       0.91513000
    96  C          0.58212000       0.38534000       0.08487000
    97  H          0.37130000       0.61160000       0.96170000
    98  H          0.62870000       0.38840000       0.03830000
    99  C          0.39388000       0.74586000       0.88013000
   100  C          0.60612000       0.25414000       0.11987000
   101  C          0.46009000       0.74716000       0.80973000
   102  C          0.53991000       0.25284000       0.19027000
   103  H          0.44000000       0.83390000       0.78540000
   104  H          0.56000000       0.16610000       0.21460000
   105  C          0.55308000       0.62326000       0.77653000
   106  C          0.44692000       0.37674000       0.22347000
   107  H          0.59720000       0.62690000       0.72960000
   108  H          0.40280000       0.37310000       0.27040000
   109  C          0.26341200       0.88017000       0.98344000
   110  C          0.73658800       0.11983000       0.01656000
   111  H          0.20620000       0.97790000      -0.00230000
   112  H          0.79380000       0.02210000       0.00230000
   113  H          0.17910000       0.82360000      -0.00400000
   114  H          0.82090000       0.17640000       0.00400000
   115  H          0.37250000       0.84180000       0.00610000
   116  H          0.62750000       0.15820000      -0.00610000
