data_JEHROH
_symmetry_space_group_name_H-M    'P1'
_symmetry_Int_Tables_number       1
loop_
_symmetry_equiv_pos_site_id
_symmetry_equiv_pos_as_xyz
1 x,y,z
_cell_length_a                   9.21628
_cell_length_b                   11.21011
_cell_length_c                   12.989111
_cell_angle_alpha                93.92701
_cell_angle_beta                 96.87201
_cell_angle_gamma                111.58101
loop_
_atom_site_label
_atom_site_type_symbol
_atom_site_fract_x
_atom_site_fract_y
_atom_site_fract_z
     1  I          0.24035400       0.49191400       0.02602300
     2  I          0.75964600       0.50808600       0.97397700
     3  I          0.92331500       0.17462400       0.00780300
     4  I          0.07668500       0.82537600      -0.00780300
     5  O          0.77335000       0.38554000       0.34533000
     6  O          0.22665000       0.61446000       0.65467000
     7  O         -0.01875000       0.61254000       0.34903000
     8  O          0.01875000       0.38746000       0.65097000
     9  C          0.08967000       0.54666000       0.20455000
    10  C          0.91033000       0.45334000       0.79545000
    11  H          0.16944900       0.63021500       0.20713300
    12  H          0.83055100       0.36978500       0.79286700
    13  C          0.96187000       0.32446000       0.12495000
    14  C          0.03813000       0.67554000       0.87505000
    15  C          0.08006000       0.44726000       0.12975000
    16  C          0.91994000       0.55274000       0.87025000
    17  C         -0.01503000       0.52446000       0.27405000
    18  C          0.01503000       0.47554000       0.72595000
    19  C          0.86677000       0.39706000       0.27115000
    20  C          0.13323000       0.60294000       0.72885000
    21  C          0.85737000       0.29996000       0.19615000
    22  C          0.14263000       0.70004000       0.80385000
    23  H          0.77868800       0.21573600       0.19337700
    24  H          0.22131200       0.78426400       0.80662300
    25  C          0.67667000       0.25696000       0.36105000
    26  C          0.32333000       0.74304000       0.63895000
    27  H          0.59541400       0.21677700       0.29955300
    28  H          0.40458600       0.78322300       0.70044700
    29  H          0.62588900       0.26015800       0.42274000
    30  H          0.37411100       0.73984200       0.57726000
    31  H          0.74240000       0.20583000       0.37162400
    32  H          0.25760000       0.79417000       0.62837600
    33  C          0.10148000       0.73986000       0.35926000
    34  C          0.89852000       0.26014000       0.64074000
    35  H          0.09421900       0.77717200       0.29371100
    36  H          0.90578100       0.22282800       0.70628900
    37  H          0.20557600       0.73474100       0.37492400
    38  H          0.79442400       0.26525900       0.62507600
    39  H          0.08671400       0.79433100       0.41604800
    40  H          0.91328600       0.20566900       0.58395200
    41  I          0.78711500       0.57383400       0.53891300
    42  I          0.21288500       0.42616600       0.46108700
    43  I          0.95309500       0.89689400       0.68228300
    44  I          0.04690500       0.10310600       0.31771700
    45  O          0.38145000       0.47254000       0.81683000
    46  O          0.61855000       0.52746000       0.18317000
    47  O          0.49695000       0.69804000       0.91683000
    48  O          0.50305000       0.30196000       0.08317000
    49  C          0.70077000       0.62296000       0.66845000
    50  C          0.29923000       0.37704000       0.33155000
    51  C          0.56987000       0.68126000       0.83845000
    52  C          0.43013000       0.31874000       0.16155000
    53  C          0.57317000       0.52806000       0.69804000
    54  C          0.42683000       0.47194000       0.30196000
    55  H          0.53133400       0.44382400       0.66042900
    56  H          0.46866600       0.55617600       0.33957100
    57  C          0.50557000       0.55425000       0.78175000
    58  C          0.49443000       0.44575000       0.21825000
    59  C          0.70007000       0.77636000       0.80895000
    60  C          0.29993000       0.22364000       0.19105000
    61  H          0.74414800       0.86016300       0.84714300
    62  H          0.25585200       0.13983700       0.15285700
    63  C          0.76547000       0.74866000       0.72375000
    64  C          0.23453000       0.25134000       0.27625000
    65  C          0.55889000       0.82046000       0.98065000
    66  C          0.44111000       0.17954000       0.01935000
    67  H          0.55471300       0.88803900       0.93773500
    68  H          0.44528700       0.11196100       0.06226500
    69  H          0.66855100       0.83947300       0.01126900
    70  H          0.33144900       0.16052700       0.98873100
    71  H          0.49543000       0.81743900       0.03654700
    72  H          0.50457000       0.18256100       0.96345300
    73  C          0.31818000       0.33916000       0.77126000
    74  C          0.68182000       0.66084000       0.22874000
    75  H          0.28291900       0.33374100       0.69619100
    76  H          0.71708100       0.66625900       0.30380900
    77  H          0.22836100       0.28978100       0.80460900
    78  H          0.77163900       0.71021900       0.19539100
    79  H          0.40015200       0.30307000       0.78183200
    80  H          0.59984800       0.69693000       0.21816800
    81  F          0.58654000       0.20313000       0.78933000
    82  F          0.41346000       0.79687000       0.21067000
    83  F          0.25704000       0.08924000       0.62503000
    84  F          0.74296000       0.91076000       0.37497000
    85  F          0.46895000       0.22484000       0.56383000
    86  F          0.53105000       0.77516000       0.43617000
    87  F          0.66585000       0.03324000       0.77613000
    88  F          0.33415000       0.96676000       0.22387000
    89  F          0.33825000       0.02124000       0.48083000
    90  F          0.66175000       0.97876000       0.51917000
    91  F          0.41795000       0.00274000       0.80723000
    92  F          0.58205000      -0.00274000       0.19277000
    93  O          0.48795000       0.04744000       0.64213000
    94  O          0.51205000       0.95256000       0.35787000
    95  B          0.53979000       0.07417000       0.75976000
    96  B          0.46021000       0.92583000       0.24024000
    97  B          0.38348000       0.09987000       0.57646000
    98  B          0.61652000       0.90013000       0.42354000
