data_JEJBOS
_symmetry_space_group_name_H-M    'P1'
_symmetry_Int_Tables_number       1
loop_
_symmetry_equiv_pos_site_id
_symmetry_equiv_pos_as_xyz
1 x,y,z
_cell_length_a                   6.02593
_cell_length_b                   8.64954
_cell_length_c                   20.352713
_cell_angle_alpha                90.0
_cell_angle_beta                 93.5075
_cell_angle_gamma                90.0
loop_
_atom_site_label
_atom_site_type_symbol
_atom_site_fract_x
_atom_site_fract_y
_atom_site_fract_z
     1  C          0.72918000       0.49126000       0.43303000
     2  C          0.77082000      -0.00874000       0.06697000
     3  C          0.27082000       0.50874000       0.56697000
     4  C          0.22918000       0.00874000       0.93303000
     5  H          0.72090000       0.44050000       0.47480000
     6  H          0.77910000       0.94050000       0.02520000
     7  H          0.27910000       0.55950000       0.52520000
     8  H          0.22090000       0.05950000       0.97480000
     9  H          0.60350000       0.55860000       0.42570000
    10  H          0.89650000       0.05860000       0.07430000
    11  H          0.39650000       0.44140000       0.57430000
    12  H          0.10350000       0.94140000       0.92570000
    13  H          0.72830000       0.41520000       0.39870000
    14  H          0.77170000       0.91520000       0.10130000
    15  H          0.27170000       0.58480000       0.60130000
    16  H          0.22830000       0.08480000       0.89870000
    17  C          0.17098000       0.73675000       0.37862000
    18  C          0.32902000       0.23675000       0.12138000
    19  C          0.82902000       0.26325000       0.62138000
    20  C          0.67098000       0.76325000       0.87862000
    21  H          0.27370000       0.72710000       0.41440000
    22  H          0.22630000       0.22710000       0.08560000
    23  H          0.72630000       0.27290000       0.58560000
    24  H          0.77370000       0.77290000       0.91440000
    25  N          0.82056000       0.66375000       0.32742000
    26  N          0.67944000       0.16375000       0.17258000
    27  N          0.17944000       0.33625000       0.67258000
    28  N          0.32056000       0.83625000       0.82742000
    29  C          0.86779000       0.75615000       0.27592000
    30  C          0.63221000       0.25615000       0.22408000
    31  C          0.13221000       0.24385000       0.72408000
    32  C          0.36779000       0.74385000       0.77592000
    33  H          0.76530000       0.75980000       0.23980000
    34  H          0.73470000       0.25980000       0.26020000
    35  H          0.23470000       0.24020000       0.76020000
    36  H          0.26530000       0.74020000       0.73980000
    37  C          0.96917000       0.65995000       0.37732000
    38  C          0.53083000       0.15995000       0.12268000
    39  C          0.03083000       0.34005000       0.62268000
    40  C          0.46917000       0.84005000       0.87732000
    41  N          0.09358000       0.93975000       0.21992000
    42  N          0.40642000       0.43975000       0.28008000
    43  N          0.90642000       0.06025000       0.78008000
    44  N          0.59358000       0.56025000       0.71992000
    45  H          0.18710000       0.01660000       0.22930000
    46  H          0.31290000       0.51660000       0.27070000
    47  H          0.81290000       0.98340000       0.77070000
    48  H          0.68710000       0.48340000       0.72930000
    49  H          0.97090000      -0.00540000       0.20830000
    50  H          0.52910000       0.49460000       0.29170000
    51  H          0.02910000       0.00540000       0.79170000
    52  H          0.47090000       0.50540000       0.70830000
    53  C          0.21537000       0.82825000       0.32542000
    54  C          0.28463000       0.32825000       0.17458000
    55  C          0.78463000       0.17175000       0.67458000
    56  C          0.71537000       0.67175000       0.82542000
    57  H          0.35110000       0.87880000       0.32420000
    58  H          0.14890000       0.37880000       0.17580000
    59  H          0.64890000       0.12120000       0.67580000
    60  H          0.85110000       0.62120000       0.82420000
    61  C          0.05687000       0.84395000       0.27392000
    62  C          0.44313000       0.34395000       0.22608000
    63  C          0.94313000       0.15605000       0.72608000
    64  C          0.55687000       0.65605000       0.77392000
    65  O          0.92925000       0.57944000       0.43306160
    66  O          0.57075000       0.07944000       0.06693840
    67  O          0.07075000       0.42056000       0.56693840
    68  O          0.42925000       0.92056000       0.93306160
    69  I          0.28097500       0.74331300       0.11745200
    70  I          0.21902500       0.24331300       0.38254800
    71  I          0.71902500       0.25668700       0.88254800
    72  I          0.78097500       0.75668700       0.61745200
    73  F          0.10084000       0.63663000       0.97273860
    74  F          0.39916000       0.13663000       0.52726140
    75  F          0.89916000       0.36337000       0.02726140
    76  F          0.60084000       0.86337000       0.47273860
    77  F          0.73444000       0.55064000       0.11556150
    78  F          0.76556000       0.05064000       0.38443850
    79  F          0.26556000       0.44936000       0.88443850
    80  F          0.23444000       0.94936000       0.61556150
    81  C          0.41327000       0.59964000       0.04672000
    82  C          0.08673000       0.09964000       0.45328000
    83  C          0.58673000       0.40036000       0.95328000
    84  C          0.91327000       0.90036000       0.54672000
    85  C          0.61617000       0.52685000       0.05832000
    86  C          0.88383000       0.02685000       0.44168000
    87  C          0.38383000       0.47315000       0.94168000
    88  C          0.11617000       0.97315000       0.55832000
    89  C          0.30107000       0.56965000       0.98747000
    90  C          0.19893000       0.06965000       0.51253000
    91  C          0.69893000       0.43035000       0.01253000
    92  C          0.80107000       0.93035000       0.48747000
