data_JEJBUY
_symmetry_space_group_name_H-M    'P1'
_symmetry_Int_Tables_number       1
loop_
_symmetry_equiv_pos_site_id
_symmetry_equiv_pos_as_xyz
1 x,y,z
_cell_length_a                   8.43007
_cell_length_b                   5.65974
_cell_length_c                   31.1402
_cell_angle_alpha                90.0
_cell_angle_beta                 94.7817
_cell_angle_gamma                90.0
loop_
_atom_site_label
_atom_site_type_symbol
_atom_site_fract_x
_atom_site_fract_y
_atom_site_fract_z
     1  I          0.03305400       0.16170600       0.40793200
     2  I          0.46694600       0.66170600       0.09206800
     3  I          0.96694600       0.83829400       0.59206800
     4  I          0.53305400       0.33829400       0.90793200
     5  F          0.83913000       0.63005000       0.42515900
     6  F          0.66087000       0.13005000       0.07484100
     7  F          0.16087000       0.36995000       0.57484100
     8  F          0.33913000       0.86995000       0.92515900
     9  F          0.18844000       0.11315000       0.50425100
    10  F          0.31156000       0.61315000      -0.00425100
    11  F          0.81156000       0.88685000       0.49574900
    12  F          0.68844000       0.38685000       0.00425100
    13  C          0.91975000       0.56128000       0.46186150
    14  C          0.58025000       0.06128000       0.03813850
    15  C          0.08025000       0.43872000       0.53813850
    16  C          0.41975000       0.93872000       0.96186150
    17  C          0.01395000       0.36528000       0.46281150
    18  C          0.48605000       0.86528000       0.03718850
    19  C         -0.01395000       0.63472000       0.53718850
    20  C          0.51395000       0.13472000       0.96281150
    21  C          0.09295000       0.30508000       0.50143170
    22  C          0.40705000       0.80508000      -0.00143170
    23  C          0.90705000       0.69492000       0.49856830
    24  C          0.59295000       0.19492000       0.00143170
    25  O          0.53834000       0.82697000       0.31389120
    26  O          0.96166000       0.32697000       0.18610880
    27  O          0.46166000       0.17303000       0.68610880
    28  O          0.03834000       0.67303000       0.81389120
    29  N          0.80385000       0.07149000       0.27884160
    30  N          0.69615000       0.57149000       0.22115840
    31  N          0.19615000       0.92851000       0.72115840
    32  N          0.30385000       0.42851000       0.77884160
    33  C          0.95335000       0.00198000       0.29299140
    34  C          0.54665000       0.50198000       0.20700860
    35  C          0.04665000      -0.00198000       0.70700860
    36  C          0.45335000       0.49802000       0.79299140
    37  C          0.12795000       0.72658000       0.33165140
    38  C          0.37205000       0.22658000       0.16834860
    39  C          0.87205000       0.27342000       0.66834860
    40  C          0.62795000       0.77342000       0.83165140
    41  H          0.14110000       0.59120000       0.34850000
    42  H          0.35890000       0.09120000       0.15150000
    43  H          0.85890000       0.40880000       0.65150000
    44  H          0.64110000       0.90880000       0.84850000
    45  C          0.26265000       0.84758000       0.32059140
    46  C          0.23735000       0.34758000       0.17940860
    47  C          0.73735000       0.15242000       0.67940860
    48  C          0.76265000       0.65242000       0.82059140
    49  C          0.97715000       0.79958000       0.31859140
    50  C          0.52285000       0.29958000       0.18140860
    51  C          0.02285000       0.20042000       0.68140860
    52  C          0.47715000       0.70042000       0.81859140
    53  H          0.89010000       0.71460000       0.32670000
    54  H          0.60990000       0.21460000       0.17330000
    55  H          0.10990000       0.28540000       0.67330000
    56  H          0.39010000       0.78540000       0.82670000
    57  C          0.23835000       0.04629000       0.29511140
    58  C          0.26165000       0.54629000       0.20488860
    59  C          0.76165000       0.95371000       0.70488860
    60  C          0.73835000       0.45371000       0.79511140
    61  H          0.32570000       0.12890000       0.28660000
    62  H          0.17430000       0.62890000       0.21340000
    63  H          0.67430000       0.87110000       0.71340000
    64  H          0.82570000       0.37110000       0.78660000
    65  C          0.42486000       0.76179000       0.33335160
    66  C          0.07514000       0.26179000       0.16664840
    67  C          0.57514000       0.23821000       0.66664840
    68  C          0.92486000       0.73821000       0.83335160
    69  C          0.08896000       0.12358000       0.28212140
    70  C          0.41104000       0.62358000       0.21787860
    71  C          0.91104000       0.87642000       0.71787860
    72  C          0.58896000       0.37642000       0.78212140
    73  H          0.07670000       0.26040000       0.26560000
    74  H          0.42330000       0.76040000       0.23440000
    75  H          0.92330000       0.73960000       0.73440000
    76  H          0.57670000       0.23960000       0.76560000
    77  C          0.39476000       0.63469000       0.40995170
    78  C          0.10524000       0.13469000       0.09004830
    79  C          0.60524000       0.36531000       0.59004830
    80  C          0.89476000       0.86531000       0.90995170
    81  H          0.33370000       0.76880000       0.41360000
    82  H          0.16630000       0.26880000       0.08640000
    83  H          0.66630000       0.23120000       0.58640000
    84  H          0.83370000       0.73120000       0.91360000
    85  C          0.45215000       0.58968000       0.36977180
    86  C          0.04785000       0.08968000       0.13022820
    87  C          0.54785000       0.41032000       0.63022820
    88  C          0.95215000       0.91032000       0.86977180
    89  C          0.54356000       0.39281100       0.36502000
    90  C          0.95644000       0.89281100       0.13498000
    91  C          0.45644000       0.60718900       0.63498000
    92  C          0.04356000       0.10718900       0.86502000
    93  H          0.58580000       0.36330000       0.33890000
    94  H          0.91420000       0.86330000       0.16110000
    95  H          0.41420000       0.63670000       0.66110000
    96  H          0.08580000       0.13670000       0.83890000
    97  C          0.51559000       0.28641400       0.43803000
    98  C         -0.01559000       0.78641400       0.06197000
    99  C          0.48441000       0.71358600       0.56197000
   100  C          0.01559000       0.21358600       0.93803000
   101  H          0.53660000       0.18330000       0.46100000
   102  H          0.96340000       0.68330000       0.03900000
   103  H          0.46340000       0.81670000       0.53900000
   104  H          0.03660000       0.31670000       0.96100000
   105  C          0.57288000       0.23781200       0.39914000
   106  C          0.92712000       0.73781200       0.10086000
   107  C          0.42712000       0.76218800       0.60086000
   108  C          0.07288000       0.26218800       0.89914000
   109  H          0.63140000       0.10100000       0.39560000
   110  H          0.86860000       0.60100000       0.10440000
   111  H          0.36860000       0.89900000       0.60440000
   112  H          0.13140000       0.39900000       0.89560000
   113  C          0.42677000       0.48661300       0.44322000
   114  C          0.07323000      -0.01338700       0.05678000
   115  C          0.57323000       0.51338700       0.55678000
   116  C          0.92677000       0.01338700       0.94322000
   117  H          0.38890000       0.51940000       0.46980000
   118  H          0.11110000       0.01940000       0.03020000
   119  H          0.61110000       0.48060000       0.53020000
   120  H          0.88890000      -0.01940000       0.96980000
   121  H          0.72650000      -0.00090000       0.29120000
   122  H          0.77350000       0.49910000       0.20880000
   123  H          0.27350000       0.00090000       0.70880000
   124  H          0.22650000       0.50090000       0.79120000
   125  H          0.78230000       0.20080000       0.26420000
   126  H          0.71770000       0.70080000       0.23580000
   127  H          0.21770000       0.79920000       0.73580000
   128  H          0.28230000       0.29920000       0.76420000
