data_JEJNAO02
_symmetry_space_group_name_H-M    'P1'
_symmetry_Int_Tables_number       1
loop_
_symmetry_equiv_pos_site_id
_symmetry_equiv_pos_as_xyz
1 x,y,z
_cell_length_a                   5.65503
_cell_length_b                   21.138016
_cell_length_c                   10.35309
_cell_angle_alpha                90.0
_cell_angle_beta                 91.7425
_cell_angle_gamma                90.0
loop_
_atom_site_label
_atom_site_type_symbol
_atom_site_fract_x
_atom_site_fract_y
_atom_site_fract_z
     1  O          0.70687000       0.34624170       0.44704000
     2  O          0.29313000       0.84624170       0.55296000
     3  O          0.25136000       0.43841190       0.15693000
     4  O          0.74864000       0.93841190       0.84307000
     5  O          0.16257000       0.52572000       0.06044000
     6  O          0.83743000       0.02572000       0.93956000
     7  O          0.26456000       0.61100150       0.35033000
     8  O          0.73544000       0.11100150       0.64967000
     9  O          0.54196000       0.66077150       0.24094000
    10  O          0.45804000       0.16077150       0.75906000
    11  H          0.43490500       0.68753900       0.22564200
    12  H          0.56509500       0.18753900       0.77435800
    13  O          0.40748000       0.39918190       0.50594000
    14  O          0.59252000       0.89918190       0.49406000
    15  N          0.58778000       0.39432000       0.44634000
    16  N          0.41222000       0.89432000       0.55366000
    17  N          0.12787000       0.48552000       0.14084000
    18  N          0.87213000       0.98552000       0.85916000
    19  C          0.60727000       0.55482000       0.29984000
    20  C          0.39273000       0.05482000       0.70016000
    21  C          0.53848000       0.50392000       0.37404000
    22  C          0.46152000       0.00392000       0.62596000
    23  H          0.40455700       0.50707100       0.42693100
    24  H          0.59544300       0.00707100       0.57306900
    25  C          0.66618000       0.44882000       0.37024000
    26  C          0.33382000       0.94882000       0.62976000
    27  C          0.86048000       0.44182000       0.29594000
    28  C          0.13952000       0.94182000       0.70406000
    29  H          0.94622100       0.40315200       0.29414000
    30  H          0.05377900       0.90315200       0.70586000
    31  C          0.92538000       0.49292000       0.22424000
    32  C          0.07462000       0.99292000       0.77576000
    33  C          0.80388000       0.54972000       0.22434000
    34  C          0.19612000       0.04972000       0.77566000
    35  H          0.85432800       0.58435500       0.17368000
    36  H          0.14567200       0.08435500       0.82632000
    37  C          0.45548000       0.61342000       0.29784000
    38  C          0.54452000       0.11342000       0.70216000
    39  O          0.73074000       0.25169150       0.77194000
    40  O          0.26926000       0.75169150       0.22806000
    41  O          0.96593000       0.20447180       0.92024000
    42  O          0.03407000       0.70447180       0.07976000
    43  O          0.89771000       0.46002190       0.62445000
    44  O          0.10229000       0.96002190       0.37555000
    45  O          0.20558000       0.50991190       0.68995000
    46  O          0.79442000       0.00991190       0.31005000
    47  O          0.63958000       0.32802000       0.09445000
    48  O          0.36042000       0.82802000       0.90555000
    49  O          0.74747000       0.41242000      -0.00386000
    50  O          0.25253000       0.91242000       0.00386000
    51  N          0.07979000       0.46355180       0.68804000
    52  N          0.92021000       0.96355180       0.31196000
    53  N          0.61148000       0.36812000       0.01245000
    54  N          0.38852000       0.86812000      -0.01245000
    55  C          0.06938000       0.30572000       0.84424000
    56  C          0.93062000       0.80572000       0.15576000
    57  C          0.26788000       0.30942000       0.92594000
    58  C          0.73212000       0.80942000       0.07406000
    59  H          0.31013000       0.27521200       0.98155700
    60  H          0.68987000       0.77521200       0.01844300
    61  C          0.40208000       0.36362000       0.92454000
    62  C          0.59792000       0.86362000       0.07546000
    63  C          0.34928000       0.41432000       0.84764000
    64  C          0.65072000       0.91432000       0.15236000
    65  H          0.44468600       0.45128800       0.84890400
    66  H          0.55531400       0.95128800       0.15109600
    67  C          0.15128000       0.40932000       0.76824000
    68  C          0.84872000       0.90932000       0.23176000
    69  C          0.01028000       0.35582000       0.76484000
    70  C         -0.01028000       0.85582000       0.23516000
    71  H          0.87472800       0.35366600       0.70842300
    72  H          0.12527200       0.85366600       0.29157700
    73  C          0.91521000       0.24792000       0.84935000
    74  C          0.08479000       0.74792000       0.15065000
    75  N          0.51607000       0.13105180       0.35754000
    76  N          0.48393000       0.63105180       0.64246000
    77  N          0.90147000       0.18398180       0.46084000
    78  N          0.09853000       0.68398180       0.53916000
    79  H          0.80678000       0.15799800       0.50095900
    80  H          0.19322000       0.65799800       0.49904100
    81  C          0.07989000       0.20992000       0.52905000
    82  C          0.92011000       0.70992000       0.47095000
    83  H          0.10477600       0.19953600       0.61764800
    84  H          0.89522400       0.69953600       0.38235200
    85  C          0.22669000       0.25162000       0.47026000
    86  C          0.77331000       0.75162000       0.52974000
    87  H          0.35415600       0.27087200       0.51730300
    88  H          0.64584400       0.77087200       0.48269700
    89  C          0.18581000       0.26522000       0.34106000
    90  C          0.81419000       0.76522000       0.65894000
    91  H          0.28520400       0.29439300       0.29887100
    92  H          0.71479600       0.79439300       0.70112900
    93  C          0.00171000       0.23662000       0.27275000
    94  C         -0.00171000       0.73662000       0.72725000
    95  H         -0.02487300       0.24563600       0.18358100
    96  H          0.02487300       0.74563600       0.81641900
    97  C          0.85688000       0.19492000       0.33514000
    98  C          0.14312000       0.69492000       0.66486000
    99  C          0.65439000       0.16052000       0.27444000
   100  C          0.34561000       0.66052000       0.72556000
   101  C          0.61441100       0.15873000       0.14285000
   102  C          0.38558900       0.65873000       0.85715000
   103  H          0.71726600       0.18002000       0.08651300
   104  H          0.28273400       0.68002000       0.91348700
   105  C          0.42241100       0.12533000       0.09436000
   106  C          0.57758900       0.62533000       0.90564000
   107  H          0.38988000       0.12364000       0.00381300
   108  H          0.61012000       0.62364000      -0.00381300
   109  C          0.28091100       0.09513000       0.17716000
   110  C          0.71908900       0.59513000       0.82284000
   111  H          0.14696900       0.07195100       0.14584700
   112  H          0.85303100       0.57195100       0.85415300
   113  C          0.33479000       0.09842000       0.30775000
   114  C          0.66521000       0.59842000       0.69225000
   115  H          0.23675800       0.07613400       0.36519200
   116  H          0.76324200       0.57613400       0.63480800
