data_JEJRIZ
_symmetry_space_group_name_H-M    'P1'
_symmetry_Int_Tables_number       1
loop_
_symmetry_equiv_pos_site_id
_symmetry_equiv_pos_as_xyz
1 x,y,z
_cell_length_a                   8.0631
_cell_length_b                   8.9791
_cell_length_c                   12.7123
_cell_angle_alpha                71.381
_cell_angle_beta                 74.131
_cell_angle_gamma                86.571
loop_
_atom_site_label
_atom_site_type_symbol
_atom_site_fract_x
_atom_site_fract_y
_atom_site_fract_z
     1  S          0.82401600       0.07097600       0.28138400
     2  S          0.17598400       0.92902400       0.71861600
     3  S          0.85502600       0.33277600       0.35110400
     4  S          0.14497400       0.66722400       0.64889600
     5  P          0.86539600       0.02972600       0.49853400
     6  P          0.13460400       0.97027400       0.50146600
     7  O          0.66972000       0.05522000       0.24951000
     8  O          0.33028000       0.94478000       0.75049000
     9  O          0.98402000       0.45632000       0.31091000
    10  O          0.01598000       0.54368000       0.68909000
    11  N          0.81302000       0.96318000       0.40761000
    12  N          0.18698000       0.03682000       0.59239000
    13  N          0.88242000       0.24722000       0.25642000
    14  N          0.11758000       0.75278000       0.74358000
    15  N          0.84802000       0.21692000       0.47312000
    16  N          0.15198000       0.78308000       0.52688000
    17  C         -0.00268000       0.00702000       0.18772000
    18  C          0.00268000      -0.00702000       0.81228000
    19  C          0.03213000       0.84778000       0.21622000
    20  C          0.96787000       0.15222000       0.78378000
    21  C          0.16183000       0.79588000       0.13972000
    22  C          0.83817000       0.20412000       0.86028000
    23  C          0.25593000       0.90197000       0.03792000
    24  C          0.74407000       0.09803000       0.96208000
    25  C          0.21953000       0.06053000       0.01112000
    26  C          0.78047000       0.93947000      -0.01112000
    27  C          0.08903000       0.11462000       0.08522000
    28  C          0.91097000       0.88538000       0.91478000
    29  C          0.65232000       0.42182000       0.36022000
    30  C          0.34768000       0.57818000       0.63978000
    31  C          0.50293000       0.33852000       0.43312000
    32  C          0.49707000       0.66148000       0.56688000
    33  C          0.34553000       0.41012000       0.43362000
    34  C          0.65447000       0.58988000       0.56638000
    35  C          0.33903000       0.56362000       0.36222000
    36  C          0.66097000       0.43638000       0.63778000
    37  C          0.48943000       0.64522000       0.29052000
    38  C          0.51057000       0.35478000       0.70948000
    39  C          0.64783000       0.57512000       0.28832000
    40  C          0.35217000       0.42488000       0.71168000
    41  C          0.74002000       0.92958000       0.64002000
    42  C          0.25998000       0.07042000       0.35998000
    43  H          0.96330000       0.77070000       0.28920000
    44  H          0.03670000       0.22930000       0.71080000
    45  H          0.18730000       0.69270000       0.15720000
    46  H          0.81270000       0.30730000       0.84280000
    47  H          0.34530000       0.86270000       0.98380000
    48  H          0.65470000       0.13730000       0.01620000
    49  H          0.28730000       0.13130000       0.94280000
    50  H          0.71270000       0.86870000       0.05720000
    51  H          0.05930000       0.22430000       0.06920000
    52  H          0.94070000       0.77570000       0.93080000
    53  H          0.51330000       0.23730000       0.48320000
    54  H          0.48670000       0.76270000       0.51680000
    55  H          0.24030000       0.34930000       0.48620000
    56  H          0.75970000       0.65070000       0.51380000
    57  H          0.23130000       0.60830000       0.36620000
    58  H          0.76870000       0.39170000       0.63380000
    59  H          0.48730000       0.75830000       0.24020000
    60  H          0.51270000       0.24170000       0.75980000
    61  H          0.75730000       0.63230000       0.24020000
    62  H          0.24270000       0.36770000       0.75980000
    63  H          0.61730000       0.94170000       0.64620000
    64  H          0.38270000       0.05830000       0.35380000
    65  H          0.77230000       0.97070000       0.69220000
    66  H          0.22770000       0.02930000       0.30780000
    67  H          0.76030000       0.80770000       0.65820000
    68  H          0.23970000       0.19230000       0.34180000
    69  C          0.34373000       0.52753000       0.97318000
    70  C          0.65627000       0.47247000       0.02682000
    71  C          0.34913000       0.43353000       0.08242000
    72  C          0.65087000       0.56647000       0.91758000
    73  C          0.49403000       0.59423000       0.89098000
    74  C          0.50597000       0.40577000       0.10902000
    75  H          0.23330000       0.55430000       0.95480000
    76  H          0.76670000       0.44570000       0.04520000
    77  H          0.24330000       0.38330000       0.13620000
    78  H          0.75670000       0.61670000       0.86380000
    79  H          0.48530000       0.65030000       0.81880000
    80  H          0.51470000       0.34970000       0.18120000
