data_JEPPUT
_symmetry_space_group_name_H-M    'P1'
_symmetry_Int_Tables_number       1
loop_
_symmetry_equiv_pos_site_id
_symmetry_equiv_pos_as_xyz
1 x,y,z
_cell_length_a                   9.37082
_cell_length_b                   18.19964
_cell_length_c                   9.89162
_cell_angle_alpha                90.0
_cell_angle_beta                 99.8182
_cell_angle_gamma                90.0
loop_
_atom_site_label
_atom_site_type_symbol
_atom_site_fract_x
_atom_site_fract_y
_atom_site_fract_z
     1  I          0.00177700       0.61917300       0.35502700
     2  I          0.49822300       0.11917300       0.14497300
     3  I         -0.00177700       0.38082700       0.64497300
     4  I          0.50177700       0.88082700       0.85502700
     5  I          0.63963700       0.46425400       0.19904600
     6  I          0.86036300       0.96425400       0.30095400
     7  I          0.36036300       0.53574600       0.80095400
     8  I          0.13963700       0.03574600       0.69904600
     9  I          0.48280800       0.58014400       0.33142800
    10  I          0.01719200       0.08014400       0.16857200
    11  I          0.51719200       0.41985600       0.66857200
    12  I         -0.01719200       0.91985600       0.83142800
    13  I          0.79663100       0.35710600       0.07255900
    14  I          0.70336900       0.85710600       0.42744100
    15  I          0.20336900       0.64289400       0.92744100
    16  I          0.29663100       0.14289400       0.57255900
    17  N          0.79461000       0.54144000       0.57999000
    18  N          0.70539000       0.04144000       0.92001000
    19  N          0.20539000       0.45856000       0.42001000
    20  N          0.29461000       0.95856000       0.07999000
    21  H          0.70574400       0.53105600       0.53647800
    22  H          0.79425600       0.03105600       0.96352200
    23  H          0.29425600       0.46894400       0.46352200
    24  H          0.20574400       0.96894400       0.03647800
    25  H          0.83877700       0.50018000       0.61218600
    26  H          0.66122300       0.00018000       0.88781400
    27  H          0.16122300       0.49982000       0.38781400
    28  H          0.33877700      -0.00018000       0.11218600
    29  H          0.84471800       0.56265300       0.52179300
    30  H          0.65528200       0.06265300       0.97820700
    31  H          0.15528200       0.43734700       0.47820700
    32  H          0.34471800       0.93734700       0.02179300
    33  N          0.73131200       0.74026000       0.00501000
    34  N          0.76868800       0.24026000       0.49499000
    35  N          0.26868800       0.25974000      -0.00501000
    36  N          0.23131200       0.75974000       0.50501000
    37  H          0.67857800       0.78153700       0.95632800
    38  H          0.82142200       0.28153700       0.54367200
    39  H          0.32142200       0.21846300       0.04367200
    40  H          0.17857800       0.71846300       0.45632800
    41  C          0.78579000       0.59185000       0.69441000
    42  C          0.71421000       0.09185000       0.80559000
    43  C          0.21421000       0.40815000       0.30559000
    44  C          0.28579000       0.90815000       0.19441000
    45  C          0.75371200       0.68706000       0.89761200
    46  C          0.74628800       0.18706000       0.60238800
    47  C          0.24628800       0.31294000       0.10238800
    48  C          0.25371200       0.81294000       0.39761200
    49  C          0.74931200       0.71366000       0.76951100
    50  C          0.75068800       0.21366000       0.73048900
    51  C          0.25068800       0.28634000       0.23048900
    52  C          0.24931200       0.78634000       0.26951100
    53  H          0.73551500       0.76347100       0.75145900
    54  H          0.76448500       0.26347100       0.74854100
    55  H          0.26448500       0.23652900       0.24854100
    56  H          0.23551500       0.73652900       0.25145900
    57  C          0.76561100       0.66535000       0.66651100
    58  C          0.73438900       0.16535000       0.83348900
    59  C          0.23438900       0.33465000       0.33348900
    60  C          0.26561100       0.83465000       0.16651100
    61  H          0.76301600       0.68245500       0.57750800
    62  H          0.73698400       0.18245500       0.92249200
    63  H          0.23698400       0.31754500       0.42249200
    64  H          0.26301600       0.81754500       0.07750800
    65  C          0.79851200       0.56296000       0.82451100
    66  C          0.70148800       0.06296000       0.67548900
    67  C          0.20148800       0.43704000       0.17548900
    68  C          0.29851200       0.93704000       0.32451100
    69  H          0.81752000       0.51337400       0.84208500
    70  H          0.68248000       0.01337400       0.65791500
    71  H          0.18248000       0.48662600       0.15791500
    72  H          0.31752000       0.98662600       0.34208500
    73  C          0.78081400       0.61358000       0.93141100
    74  C          0.71918600       0.11358000       0.56858900
    75  C          0.21918600       0.38642000       0.06858900
    76  C          0.28081400       0.88642000       0.43141100
    77  H          0.78729400       0.59750200       0.02157200
    78  H          0.71270600       0.09750200       0.47842800
    79  H          0.21270600       0.40249800       0.97842800
    80  H          0.28729400       0.90249800       0.52157200
    81  C          0.63551400       0.71118000       0.09881300
    82  C          0.86448600       0.21118000       0.40118700
    83  C          0.36448600       0.28882000       0.90118700
    84  C          0.13551400       0.78882000       0.59881300
    85  H          0.54443700       0.69632500       0.04586400
    86  H          0.95556300       0.19632500       0.45413600
    87  H          0.45556300       0.30367500       0.95413600
    88  H          0.04443700       0.80367500       0.54586400
    89  H          0.61933200       0.74875300       0.16248400
    90  H          0.88066800       0.24875300       0.33751600
    91  H          0.38066800       0.25124700       0.83751600
    92  H          0.11933200       0.75124700       0.66248400
    93  H          0.68099700       0.66958600       0.14821800
    94  H          0.81900300       0.16958600       0.35178200
    95  H          0.31900300       0.33041400       0.85178200
    96  H          0.18099700       0.83041400       0.64821800
    97  C          0.86501500       0.77096000       0.07831200
    98  C          0.63498500       0.27096000       0.42168800
    99  C          0.13498500       0.22904000       0.92168800
   100  C          0.36501500       0.72904000       0.57831200
   101  H          0.91999200       0.73295600       0.13092100
   102  H          0.58000800       0.23295600       0.36907900
   103  H          0.08000800       0.26704400       0.86907900
   104  H          0.41999200       0.76704400       0.63092100
   105  H          0.84329800       0.80902200       0.13865100
   106  H          0.65670200       0.30902200       0.36134900
   107  H          0.15670200       0.19097800       0.86134900
   108  H          0.34329800       0.69097800       0.63865100
   109  H          0.92028800       0.79095800       0.01380000
   110  H          0.57971200       0.29095800       0.48620000
   111  H          0.07971200       0.20904200      -0.01380000
   112  H          0.42028800       0.70904200       0.51380000
