data_JEPYEL
_symmetry_space_group_name_H-M    'P1'
_symmetry_Int_Tables_number       1
loop_
_symmetry_equiv_pos_site_id
_symmetry_equiv_pos_as_xyz
1 x,y,z
_cell_length_a                   9.33684
_cell_length_b                   13.32866
_cell_length_c                   14.88846
_cell_angle_alpha                90.0
_cell_angle_beta                 107.38401
_cell_angle_gamma                90.0
loop_
_atom_site_label
_atom_site_type_symbol
_atom_site_fract_x
_atom_site_fract_y
_atom_site_fract_z
     1  S          0.58342500       0.28239300       0.01193300
     2  S          0.91657500       0.78239300       0.48806700
     3  S          0.41657500       0.71760700       0.98806700
     4  S          0.08342500       0.21760700       0.51193300
     5  C          0.67987190       0.34321120       0.11588120
     6  C          0.82012810       0.84321120       0.38411880
     7  C          0.32012810       0.65678880       0.88411880
     8  C          0.17987190       0.15678880       0.61588120
     9  N          0.75735190       0.42480110       0.93055890
    10  N          0.74264810       0.92480110       0.56944110
    11  N          0.24264810       0.57519890       0.06944110
    12  N          0.25735190       0.07519890       0.43055890
    13  N          0.88032000       0.28740120       0.88025880
    14  N          0.61968000       0.78740120       0.61974120
    15  N          0.11968000       0.71259880       0.11974120
    16  N          0.38032000       0.21259880       0.38025880
    17  N          0.70420180       0.25807110       0.95528890
    18  N          0.79579820       0.75807110       0.54471110
    19  N          0.29579820       0.74192890       0.04471110
    20  N          0.20420180       0.24192890       0.45528890
    21  H          0.72000000       0.19590000       0.94610000
    22  H          0.78000000       0.69590000       0.55390000
    23  H          0.28000000       0.80410000       0.05390000
    24  H          0.22000000       0.30410000       0.44610000
    25  O          0.54370170       0.18345100       0.03526110
    26  O          0.95629830       0.68345100       0.46473890
    27  O          0.45629830       0.81654900       0.96473890
    28  O          0.04370170       0.31654900       0.53526110
    29  C          0.81872000       0.42870140       0.29098130
    30  C          0.68128000       0.92870140       0.20901870
    31  C          0.18128000       0.57129860       0.70901870
    32  C          0.31872000       0.07129860       0.79098130
    33  O          0.46704160       0.34566110       0.95747900
    34  O          0.03295840       0.84566110       0.54252100
    35  O          0.53295840       0.65433890       0.04252100
    36  O          0.96704160       0.15433890       0.45747900
    37  C          0.70132000       0.47757140       0.22534140
    38  C          0.79868000       0.97757140       0.27465860
    39  C          0.29868000       0.52242860       0.77465860
    40  C          0.20132000       0.02242860       0.72534140
    41  H          0.66900000       0.53960000       0.24030000
    42  H          0.83100000       0.03960000       0.25970000
    43  H          0.33100000       0.46040000       0.75970000
    44  H          0.16900000       0.96040000       0.74030000
    45  C          0.63222000       0.43567130       0.13867130
    46  C          0.86778000       0.93567130       0.36132870
    47  C          0.36778000       0.56432870       0.86132870
    48  C          0.13222000       0.06432870       0.63867130
    49  H          0.55390000       0.46920000       0.09560000
    50  H          0.94610000       0.96920000       0.40440000
    51  H          0.44610000       0.53080000       0.90440000
    52  H          0.05390000       0.03080000       0.59560000
    53  C          0.84132000       0.48924140       0.89767860
    54  C          0.65868000       0.98924140       0.60232140
    55  C          0.15868000       0.51075860       0.10232140
    56  C          0.34132000       0.01075860       0.39767860
    57  C          0.80022000       0.29468130       0.17933130
    58  C          0.69978000       0.79468130       0.32066870
    59  C          0.19978000       0.70531870       0.82066870
    60  C          0.30022000       0.20531870       0.67933130
    61  H          0.83390000       0.23350000       0.16330000
    62  H          0.66610000       0.73350000       0.33670000
    63  H          0.16610000       0.76650000       0.83670000
    64  H          0.33390000       0.26650000       0.66330000
    65  C          0.86922000       0.33676140       0.26531140
    66  C          0.63078000       0.83676140       0.23468860
    67  C          0.13078000       0.66323860       0.73468860
    68  C          0.36922000       0.16323860       0.76531140
    69  H          0.95010000       0.30430000       0.30710000
    70  H          0.54990000       0.80430000       0.19290000
    71  H          0.04990000       0.69570000       0.69290000
    72  H          0.45010000       0.19570000       0.80710000
    73  C          0.78412000       0.32839130       0.92043880
    74  C          0.71588000       0.82839130       0.57956120
    75  C          0.21588000       0.67160870       0.07956120
    76  C          0.28412000       0.17160870       0.42043880
    77  C          0.94593000       0.45561170       0.85714830
    78  C          0.55407000       0.95561170       0.64285170
    79  C          0.05407000       0.54438830       0.14285170
    80  C          0.44593000       0.04438830       0.35714830
    81  H          0.00470000       0.50060000       0.83590000
    82  H          0.49530000       0.00060000       0.66410000
    83  H         -0.00470000       0.49940000       0.16410000
    84  H          0.50470000      -0.00060000       0.33590000
    85  N          0.88513000       0.46818160       0.37839130
    86  N          0.61487000       0.96818160       0.12160870
    87  N          0.11487000       0.53181840       0.62160870
    88  N          0.38513000       0.03181840       0.87839130
    89  H         -0.01890000       0.46510000       0.39030000
    90  H          0.51890000       0.96510000       0.10970000
    91  H          0.01890000       0.53490000       0.60970000
    92  H          0.48110000       0.03490000       0.89030000
    93  H          0.85820000       0.53000000       0.37900000
    94  H          0.64180000       0.03000000       0.12100000
    95  H          0.14180000       0.47000000       0.62100000
    96  H          0.35820000       0.97000000       0.87900000
    97  C          0.96263000       0.35274170       0.84832840
    98  C          0.53737000       0.85274170       0.65167160
    99  C          0.03737000       0.64725830       0.15167160
   100  C          0.46263000       0.14725830       0.34832840
   101  C          0.81183000       0.59857160       0.90708000
   102  C          0.68817000       0.09857160       0.59292000
   103  C          0.18817000       0.40142840       0.09292000
   104  C          0.31183000       0.90142840       0.40708000
   105  H          0.74220000       0.62240000       0.84970000
   106  H          0.75780000       0.12240000       0.65030000
   107  H          0.25780000       0.37760000       0.15030000
   108  H          0.24220000       0.87760000       0.34970000
   109  H          0.90420000       0.63520000       0.91950000
   110  H          0.59580000       0.13520000       0.58050000
   111  H          0.09580000       0.36480000       0.08050000
   112  H          0.40420000       0.86480000       0.41950000
   113  H          0.77010000       0.60820000       0.95810000
   114  H          0.72990000       0.10820000       0.54190000
   115  H          0.22990000       0.39180000       0.04190000
   116  H          0.27010000       0.89180000       0.45810000
   117  C          0.07274000       0.30892000       0.80377000
   118  C          0.42726000       0.80892000       0.69623000
   119  C          0.92726000       0.69108000       0.19623000
   120  C          0.57274000       0.19108000       0.30377000
   121  H          0.16980000       0.30500000       0.84970000
   122  H          0.33020000       0.80500000       0.65030000
   123  H          0.83020000       0.69500000       0.15030000
   124  H          0.66980000       0.19500000       0.34970000
   125  H          0.07830000       0.35070000       0.75250000
   126  H          0.42170000       0.85070000       0.74750000
   127  H          0.92170000       0.64930000       0.24750000
   128  H          0.57830000       0.14930000       0.25250000
   129  H          0.04050000       0.24280000       0.78070000
   130  H          0.45950000       0.74280000       0.71930000
   131  H          0.95950000       0.75720000       0.21930000
   132  H          0.54050000       0.25720000       0.28070000
   133  S          0.23780800      -0.00023600       0.11894600
   134  S          0.26219200       0.49976400       0.38105400
   135  S          0.76219200       0.00023600       0.88105400
   136  S          0.73780800       0.50023600       0.61894600
   137  O          0.20462000       0.94112880       0.02891130
   138  O          0.29538000       0.44112880       0.47108870
   139  O          0.79538000       0.05887120       0.97108870
   140  O          0.70462000       0.55887120       0.52891130
   141  C          0.08004000       0.98657000       0.15912000
   142  C          0.41996000       0.48657000       0.34088000
   143  C          0.91996000       0.01343000       0.84088000
   144  C          0.58004000       0.51343000       0.65912000
   145  H         -0.00760000       0.00980000       0.11150000
   146  H          0.50760000       0.50980000       0.38850000
   147  H          0.00760000      -0.00980000       0.88850000
   148  H          0.49240000       0.49020000       0.61150000
   149  H          0.09400000       0.02560000       0.21530000
   150  H          0.40600000       0.52560000       0.28470000
   151  H          0.90600000       0.97440000       0.78470000
   152  H          0.59400000       0.47440000       0.71530000
   153  H          0.06750000       0.91730000       0.17250000
   154  H          0.43250000       0.41730000       0.32750000
   155  H          0.93250000       0.08270000       0.82750000
   156  H          0.56750000       0.58270000       0.67250000
   157  C          0.20985000       0.12762000       0.08254000
   158  C          0.29015000       0.62762000       0.41746000
   159  C          0.79015000       0.87238000       0.91746000
   160  C          0.70985000       0.37238000       0.58254000
   161  H          0.27940000       0.14540000       0.04900000
   162  H          0.22060000       0.64540000       0.45100000
   163  H          0.72060000       0.85460000       0.95100000
   164  H          0.77940000       0.35460000       0.54900000
   165  H          0.22580000       0.16990000       0.13680000
   166  H          0.27420000       0.66990000       0.36320000
   167  H          0.77420000       0.83010000       0.86320000
   168  H          0.72580000       0.33010000       0.63680000
   169  H          0.10910000       0.13630000       0.04210000
   170  H          0.39090000       0.63630000       0.45790000
   171  H          0.89090000       0.86370000       0.95790000
   172  H          0.60910000       0.36370000       0.54210000
