data_JESXEN
_symmetry_space_group_name_H-M    'P1'
_symmetry_Int_Tables_number       1
loop_
_symmetry_equiv_pos_site_id
_symmetry_equiv_pos_as_xyz
1 x,y,z
_cell_length_a                   11.2322
_cell_length_b                   12.2833
_cell_length_c                   4.4011
_cell_angle_alpha                90.0
_cell_angle_beta                 90.0
_cell_angle_gamma                90.0
loop_
_atom_site_label
_atom_site_type_symbol
_atom_site_fract_x
_atom_site_fract_y
_atom_site_fract_z
     1  S          0.53255400       0.07871400       0.37729110
     2  S          0.46744600       0.92128600       0.37729110
     3  S          0.96744600       0.57871400       0.62270890
     4  S          0.03255400       0.42128600       0.62270890
     5  O          0.56020130       0.28267120       0.53664000
     6  O          0.43979870       0.71732880       0.53664000
     7  O          0.93979870       0.78267120       0.46336000
     8  O          0.06020130       0.21732880       0.46336000
     9  N          0.46320150       0.24721130       0.67984000
    10  N          0.53679850       0.75278870       0.67984000
    11  N          0.03679850       0.74721130       0.32016000
    12  N          0.96320150       0.25278870       0.32016000
    13  C          0.43106160       0.14203150       0.63115000
    14  C          0.56893840       0.85796850       0.63115000
    15  C          0.06893840       0.64203150       0.36885000
    16  C          0.93106160       0.35796850       0.36885000
    17  C          0.32900170       0.10057170       0.76785000
    18  C          0.67099830       0.89942830       0.76785000
    19  C          0.17099830       0.60057170       0.23215000
    20  C          0.82900170       0.39942830       0.23215000
    21  H          0.30506900       0.02939100       0.72963100
    22  H          0.69493100       0.97060900       0.72963100
    23  H          0.19493100       0.52939100       0.27036900
    24  H          0.80506900       0.47060900       0.27036900
    25  C          0.26352000       0.16604180       0.96085000
    26  C          0.73648000       0.83395820       0.96085000
    27  C          0.23648000       0.66604180       0.03915000
    28  C          0.76352000       0.33395820       0.03915000
    29  H          0.19545300       0.13903700       0.05482200
    30  H          0.80454700       0.86096300       0.05482200
    31  H          0.30454700       0.63903700       0.94517800
    32  H          0.69545300       0.36096300       0.94517800
    33  C          0.29992000       0.27245190       0.01345000
    34  C          0.70008000       0.72754810       0.01345000
    35  C          0.20008000       0.77245190      -0.01345000
    36  C          0.79992000       0.22754810      -0.01345000
    37  H          0.25661900       0.31683200       0.14419500
    38  H          0.74338100       0.68316800       0.14419500
    39  H          0.24338100       0.81683200       0.85580500
    40  H          0.75661900       0.18316800       0.85580500
    41  C          0.40004190       0.31208170       0.87206000
    42  C          0.59995810       0.68791830       0.87206000
    43  C          0.09995810       0.81208170       0.12794000
    44  C          0.90004190       0.18791830       0.12794000
    45  H          0.42465500       0.38324400       0.90758400
    46  H          0.57534500       0.61675600       0.90758400
    47  H          0.07534500       0.88324400       0.09241600
    48  H          0.92465500       0.11675600       0.09241600
    49  O          0.56329150       0.48760130       0.33285000
    50  O          0.43670850       0.51239870       0.33285000
    51  O          0.93670850       0.98760130       0.66715000
    52  O          0.06329150       0.01239870       0.66715000
    53  H          0.55930000       0.41720000       0.41660000
    54  H          0.44070000       0.58280000       0.41660000
    55  H          0.94070000       0.91720000       0.58340000
    56  H          0.05930000       0.08280000       0.58340000
