data_JIBHOU
_symmetry_space_group_name_H-M    'P1'
_symmetry_Int_Tables_number       1
loop_
_symmetry_equiv_pos_site_id
_symmetry_equiv_pos_as_xyz
1 x,y,z
_cell_length_a                   4.99823
_cell_length_b                   7.65105
_cell_length_c                   13.26128
_cell_angle_alpha                79.7412
_cell_angle_beta                 81.610919
_cell_angle_gamma                72.911819
loop_
_atom_site_label
_atom_site_type_symbol
_atom_site_fract_x
_atom_site_fract_y
_atom_site_fract_z
     1  C          0.37834000       0.36582000       0.49675130
     2  C          0.62166000       0.63418000       0.50324870
     3  C          0.24285000       0.22513000       0.49907170
     4  C          0.75715000       0.77487000       0.50092830
     5  H          0.25201900       0.17341400       0.43984800
     6  H          0.74798100       0.82658600       0.56015200
     7  C          0.09996000       0.16633000       0.58767190
     8  C          0.90004000       0.83367000       0.41232810
     9  H          0.01380200       0.07344900       0.58853400
    10  H         -0.01380200       0.92655100       0.41146600
    11  C          0.08005000       0.24374000       0.67815180
    12  C          0.91995000       0.75626000       0.32184820
    13  H          0.97992600       0.20185400       0.73767600
    14  H          0.02007400       0.79814600       0.26232400
    15  C          0.20495000       0.37843000       0.67974150
    16  C          0.79505000       0.62157000       0.32025850
    17  H          0.19051500       0.42781700       0.74014200
    18  H          0.80948500       0.57218300       0.25985800
    19  C          0.35834000       0.44433000       0.58880130
    20  C          0.64166000       0.55567000       0.41119870
    21  N          0.51934000       0.42212000       0.40903120
    22  N          0.48066000       0.57788000       0.59096880
    23  C          0.47044000       0.23342000       0.05521140
    24  C          0.52956000       0.76658000       0.94478860
    25  C          0.50863000       0.02622000       0.05328110
    26  C          0.49137000       0.97378000       0.94671890
    27  F          0.66664000       0.28862000       0.98770890
    28  F          0.33336000       0.71138000       0.01229110
    29  F          0.22064000       0.33102000       0.02396140
    30  F          0.77936000       0.66898000       0.97603860
    31  F          0.76173000       0.93295820       0.08428100
    32  F          0.23827000       0.06704180       0.91571900
    33  F          0.31133000       0.97408000       0.12067100
    34  F          0.68867000       0.02592000       0.87932900
    35  I          0.50114300       0.29081200       0.20552200
    36  I          0.49885700       0.70918800       0.79447800
