data_JIBHIO
_symmetry_space_group_name_H-M    'P1'
_symmetry_Int_Tables_number       1
loop_
_symmetry_equiv_pos_site_id
_symmetry_equiv_pos_as_xyz
1 x,y,z
_cell_length_a                   4.92965
_cell_length_b                   7.60298
_cell_length_c                   13.233613
_cell_angle_alpha                79.9053
_cell_angle_beta                 81.4983
_cell_angle_gamma                72.0813
loop_
_atom_site_label
_atom_site_type_symbol
_atom_site_fract_x
_atom_site_fract_y
_atom_site_fract_z
     1  C          0.37732000       0.36521150       0.49577800
     2  C          0.62268000       0.63478850       0.50422200
     3  C          0.24063000       0.22455170       0.49695900
     4  C          0.75937000       0.77544830       0.50304100
     5  H          0.24868700       0.17349700       0.43561000
     6  H          0.75131300       0.82650300       0.56439000
     7  C          0.09803000       0.16294170       0.58604100
     8  C          0.90197000       0.83705830       0.41395900
     9  H          0.00836600       0.06875300       0.58606400
    10  H         -0.00836600       0.93124700       0.41393600
    11  C          0.08183000       0.23794180       0.67885900
    12  C          0.91817000       0.76205820       0.32114100
    13  H          0.98123100       0.19352500       0.73994600
    14  H          0.01876900       0.80647500       0.26005400
    15  C          0.20943000       0.37300170       0.68088900
    16  C          0.79057000       0.62699830       0.31911100
    17  H          0.19809600       0.42148100       0.74333200
    18  H          0.80190400       0.57851900       0.25666800
    19  C          0.35992000       0.44161150       0.58949800
    20  C          0.64008000       0.55838850       0.41050200
    21  N          0.51732000       0.42427130       0.40754700
    22  N          0.48268000       0.57572870       0.59245300
    23  C          0.46762000       0.23641140       0.05502800
    24  C          0.53238000       0.76358860       0.94497200
    25  C          0.51132000       0.02660140       0.05327800
    26  C          0.48868000       0.97339860       0.94672200
    27  F          0.66440180       0.29253110       0.98591400
    28  F          0.33559820       0.70746890       0.01408600
    29  F          0.20821170       0.33411110       0.02596700
    30  F          0.79178830       0.66588890       0.97403300
    31  F          0.77321160       0.93187900       0.08237600
    32  F          0.22678840       0.06812100       0.91762400
    33  F          0.31356170       0.97363890       0.12285500
    34  F          0.68643830       0.02636110       0.87714500
    35  I          0.50338200       0.29389200       0.20585200
    36  I          0.49661800       0.70610800       0.79414800
