data_JIBHEK
_symmetry_space_group_name_H-M    'P1'
_symmetry_Int_Tables_number       1
loop_
_symmetry_equiv_pos_site_id
_symmetry_equiv_pos_as_xyz
1 x,y,z
_cell_length_a                   5.77782
_cell_length_b                   9.99523
_cell_length_c                   12.15184
_cell_angle_alpha                79.7753
_cell_angle_beta                 86.3433
_cell_angle_gamma                82.4783
loop_
_atom_site_label
_atom_site_type_symbol
_atom_site_fract_x
_atom_site_fract_y
_atom_site_fract_z
     1  I          0.08642200       0.24582200       0.19516200
     2  I          0.91357800       0.75417800       0.80483800
     3  F          0.86917000       0.25793140       0.98409890
     4  F          0.13083000       0.74206860       0.01590110
     5  F          0.09863000       0.94299870       0.13494110
     6  F          0.90137000       0.05700130       0.86505890
     7  F          0.26052000       0.07286150      -0.00418120
     8  F          0.73948000       0.92713850       0.00418120
     9  F          0.70248000       0.13015170       0.11995130
    10  F          0.29752000       0.86984830       0.88004870
    11  C          0.91086000       0.16422000       0.07645170
    12  C          0.08914000       0.83578000       0.92354830
    13  C          0.05524000       0.03572000       0.04183160
    14  C          0.94476000       0.96428000       0.95816840
    15  N          0.36373000       0.33450180       0.35476140
    16  N          0.63627000       0.66549820       0.64523860
    17  N          0.73843000       0.36667180       0.48322140
    18  N          0.26157000       0.63332820       0.51677860
    19  C          0.40334000       0.25582000       0.45512170
    20  C          0.59666000       0.74418000       0.54487830
    21  C          0.69724000       0.44632000       0.38403170
    22  C          0.30276000       0.55368000       0.61596830
    23  C          0.50844000       0.42922000       0.31806170
    24  C          0.49156000       0.57078000       0.68193830
    25  C          0.59604000       0.27152000       0.51910170
    26  C          0.40396000       0.72848000       0.48089830
    27  C          0.84504000       0.54892000       0.34184190
    28  C          0.15496000       0.45108000       0.65815810
    29  H          0.96685200       0.56114600       0.38405400
    30  H          0.03314800       0.43885400       0.61594600
    31  C          0.80914000       0.62822000       0.24102000
    32  C          0.19086000       0.37178000       0.75898000
    33  H          0.90656900       0.69483800       0.21425100
    34  H          0.09343100       0.30516200       0.78574900
    35  C          0.63424000       0.18332000       0.62358180
    36  C          0.36576000       0.81668000       0.37641820
    37  H          0.76004000       0.19097300       0.66514100
    38  H          0.23996000       0.80902700       0.33485900
    39  C          0.29584000       0.07452000       0.60068190
    40  C          0.70416000       0.92548000       0.39931810
    41  H          0.19678600       0.00926700       0.62925600
    42  H          0.80321400      -0.00926700       0.37074400
    43  C          0.48894000       0.08822000       0.66297190
    44  C          0.51106000       0.91178000       0.33702810
    45  H          0.51565200       0.03134300       0.73144600
    46  H          0.48434800       0.96865700       0.26855400
    47  C          0.25404000       0.15542000       0.49994180
    48  C          0.74596000       0.84458000       0.50005820
    49  H          0.12714800       0.14508900       0.46012700
    50  H          0.87285200       0.85491100       0.53987300
    51  C          0.62344000       0.61092000       0.17492000
    52  C          0.37656000       0.38908000       0.82508000
    53  H          0.60229300       0.66588700       0.10515500
    54  H          0.39770700       0.33411300       0.89484500
    55  C          0.47734000       0.51562000       0.21226190
    56  C          0.52266000       0.48438000       0.78773810
    57  H          0.35581300       0.50649000       0.16849800
    58  H          0.64418700       0.49351000       0.83150200
