data_JICWIB10
_symmetry_space_group_name_H-M    'P1'
_symmetry_Int_Tables_number       1
loop_
_symmetry_equiv_pos_site_id
_symmetry_equiv_pos_as_xyz
1 x,y,z
_cell_length_a                   7.2071
_cell_length_b                   9.7402
_cell_length_c                   17.0726
_cell_angle_alpha                90.0
_cell_angle_beta                 90.0
_cell_angle_gamma                90.0
loop_
_atom_site_label
_atom_site_type_symbol
_atom_site_fract_x
_atom_site_fract_y
_atom_site_fract_z
     1  Br         0.61671000       0.50000000       0.18100000
     2  Br         0.38329000       0.50000000       0.68100000
     3  Br         0.11671000      -0.00000000       0.18100000
     4  Br         0.88329000      -0.00000000       0.68100000
     5  Br         0.17741000       0.50000000       0.18071000
     6  Br         0.82259000       0.50000000       0.68071000
     7  Br         0.67741000      -0.00000000       0.18071000
     8  Br         0.32259000      -0.00000000       0.68071000
     9  O          0.36308000       0.74185000       0.26614000
    10  O          0.63692000       0.25815000       0.76614000
    11  O          0.63692000       0.74185000       0.76614000
    12  O          0.36308000       0.25815000       0.26614000
    13  O          0.86308000       0.24185000       0.26614000
    14  O          0.13692000       0.75815000       0.76614000
    15  O          0.13692000       0.24185000       0.76614000
    16  O          0.86308000       0.75815000       0.26614000
    17  O          0.55161200       0.50000000       0.47715000
    18  O          0.44838800       0.50000000       0.97715000
    19  O          0.05161200      -0.00000000       0.47715000
    20  O          0.94838800      -0.00000000       0.97715000
    21  N          0.46538000       0.61985000       0.36954000
    22  N          0.53462000       0.38015000       0.86954000
    23  N          0.53462000       0.61985000       0.86954000
    24  N          0.46538000       0.38015000       0.36954000
    25  N          0.96538000       0.11985000       0.36954000
    26  N          0.03462000       0.88015000       0.86954000
    27  N          0.03462000       0.11985000       0.86954000
    28  N          0.96538000       0.88015000       0.36954000
    29  C          0.39281200       0.50000000       0.24856000
    30  C          0.60718800       0.50000000       0.74856000
    31  C          0.89281200      -0.00000000       0.24856000
    32  C          0.10718800      -0.00000000       0.74856000
    33  C          0.40269000       0.63206000       0.29464000
    34  C          0.59731000       0.36794000       0.79464000
    35  C          0.59731000       0.63206000       0.79464000
    36  C          0.40269000       0.36794000       0.29464000
    37  C          0.90269000       0.13206000       0.29464000
    38  C          0.09731000       0.86794000       0.79464000
    39  C          0.09731000       0.13206000       0.79464000
    40  C          0.90269000       0.86794000       0.29464000
    41  C          0.50000000       0.50000000       0.41035000
    42  C          0.50000000       0.50000000       0.91035000
    43  C          0.00000000      -0.00000000       0.41035000
    44  C          0.00000000      -0.00000000       0.91035000
    45  H          0.48620000       0.69890000       0.39530000
    46  H          0.51380000       0.30110000       0.89530000
    47  H          0.51380000       0.69890000       0.89530000
    48  H          0.48620000       0.30110000       0.39530000
    49  H         -0.01380000       0.19890000       0.39530000
    50  H          0.01380000       0.80110000       0.89530000
    51  H          0.01380000       0.19890000       0.89530000
    52  H         -0.01380000       0.80110000       0.39530000
    53  N          0.52288000       0.87615000       0.45453000
    54  N          0.47712000       0.12385000       0.95453000
    55  N          0.47712000       0.87615000       0.95453000
    56  N          0.52288000       0.12385000       0.45453000
    57  N          0.02288000       0.37615000       0.45453000
    58  N          0.97712000       0.62385000       0.95453000
    59  N          0.97712000       0.37615000       0.95453000
    60  N          0.02288000       0.62385000       0.45453000
    61  N          0.61381000      -0.00000000       0.56955000
    62  N          0.38619000      -0.00000000       0.06955000
    63  N          0.11381000       0.50000000       0.56955000
    64  N          0.88619000       0.50000000       0.06955000
    65  N          0.42511100      -0.00000000       0.34746000
    66  N          0.57488900      -0.00000000       0.84746000
    67  N          0.92511100       0.50000000       0.34746000
    68  N          0.07488900       0.50000000       0.84746000
    69  N          0.61651000       0.76645000       0.56635000
    70  N          0.38349000       0.23355000       0.06635000
    71  N          0.38349000       0.76645000       0.06635000
    72  N          0.61651000       0.23355000       0.56635000
    73  N          0.11651000       0.26645000       0.56635000
    74  N          0.88349000       0.73355000       0.06635000
    75  N          0.88349000       0.26645000       0.06635000
    76  N          0.11651000       0.73355000       0.56635000
    77  C          0.49882400      -0.00000000       0.41998000
    78  C          0.50117600      -0.00000000       0.91998000
    79  C         -0.00117600       0.50000000       0.41998000
    80  C          0.00117600       0.50000000       0.91998000
    81  C          0.58198000       0.88306000       0.52795000
    82  C          0.41802000       0.11694000       0.02795000
    83  C          0.41802000       0.88306000       0.02795000
    84  C          0.58198000       0.11694000       0.52795000
    85  C          0.08198000       0.38306000       0.52795000
    86  C          0.91802000       0.61694000       0.02795000
    87  C          0.91802000       0.38306000       0.02795000
    88  C          0.08198000       0.61694000       0.52795000
    89  H          0.40440000       0.92000000       0.32250000
    90  H          0.59560000       0.08000000       0.82250000
    91  H          0.59560000       0.92000000       0.82250000
    92  H          0.40440000       0.08000000       0.32250000
    93  H          0.90440000       0.42000000       0.32250000
    94  H          0.09560000       0.58000000       0.82250000
    95  H          0.09560000       0.42000000       0.82250000
    96  H          0.90440000       0.58000000       0.32250000
    97  H          0.65880000       0.76720000       0.61600000
    98  H          0.34120000       0.23280000       0.11600000
    99  H          0.34120000       0.76720000       0.11600000
   100  H          0.65880000       0.23280000       0.61600000
   101  H          0.15880000       0.26720000       0.61600000
   102  H          0.84120000       0.73280000       0.11600000
   103  H          0.84120000       0.26720000       0.11600000
   104  H          0.15880000       0.73280000       0.61600000
   105  H          0.59730000       0.68600000       0.54160000
   106  H          0.40270000       0.31400000       0.04160000
   107  H          0.40270000       0.68600000       0.04160000
   108  H          0.59730000       0.31400000       0.54160000
   109  H          0.09730000       0.18600000       0.54160000
   110  H          0.90270000       0.81400000       0.04160000
   111  H          0.90270000       0.18600000       0.04160000
   112  H          0.09730000       0.81400000       0.54160000
