data_JIJGEO
_symmetry_space_group_name_H-M    'P1'
_symmetry_Int_Tables_number       1
loop_
_symmetry_equiv_pos_site_id
_symmetry_equiv_pos_as_xyz
1 x,y,z
_cell_length_a                   6.7251
_cell_length_b                   15.0353
_cell_length_c                   15.5373
_cell_angle_alpha                80.382
_cell_angle_beta                 83.161
_cell_angle_gamma                87.151
loop_
_atom_site_label
_atom_site_type_symbol
_atom_site_fract_x
_atom_site_fract_y
_atom_site_fract_z
     1  S          0.63611000       0.24231000       0.59651000
     2  S          0.36389000       0.75769000       0.40349000
     3  S          0.95272000       0.31491000       0.47531000
     4  S          0.04728000       0.68509000       0.52469000
     5  C          0.83448000       0.07833000       0.63503000
     6  C          0.16552000       0.92167000       0.36497000
     7  C          0.84066000       0.17192000       0.58262000
     8  C          0.15934000       0.82808000       0.41738000
     9  C         -0.00824000       0.20553000       0.52402000
    10  C          0.00824000       0.79447000       0.47598000
    11  C          0.18417000       0.15843000       0.49903000
    12  C          0.81583000       0.84157000       0.50097000
    13  C          0.72485000       0.33122000       0.52582000
    14  C          0.27515000       0.66878000       0.47418000
    15  C          0.61095000       0.41882000       0.51152000
    16  C          0.38905000       0.58118000       0.48848000
    17  C          0.62495000       0.48082000       0.56862000
    18  C          0.37505000       0.51918000       0.43138000
    19  C          0.74716000       0.46333000       0.63902000
    20  C          0.25284000       0.53667000       0.36098000
    21  C          0.75496000       0.52583000       0.69282000
    22  C          0.24504000       0.47417000       0.30718000
    23  C          0.64616000       0.60653000       0.68092000
    24  C          0.35384000       0.39347000       0.31908000
    25  C          0.52826000       0.62712000       0.61452000
    26  C          0.47174000       0.37288000       0.38548000
    27  C          0.48845000       0.43592000       0.44342000
    28  C          0.51155000       0.56408000       0.55658000
    29  H          0.71040000       0.07130000       0.67270000
    30  H          0.28960000       0.92870000       0.32730000
    31  H          0.94430000       0.06890000       0.67000000
    32  H          0.05570000       0.93110000       0.33000000
    33  H          0.84460000       0.03490000       0.59580000
    34  H          0.15540000       0.96510000       0.40420000
    35  H          0.26500000       0.19790000       0.45520000
    36  H          0.73500000       0.80210000       0.54480000
    37  H          0.15740000       0.10540000       0.47570000
    38  H          0.84260000       0.89460000       0.52430000
    39  H          0.25420000       0.14120000       0.54980000
    40  H          0.74580000       0.85880000       0.45020000
    41  H          0.82380000       0.40770000       0.64840000
    42  H          0.17620000       0.59230000       0.35160000
    43  H          0.83740000       0.51340000       0.74000000
    44  H          0.16260000       0.48660000       0.26000000
    45  H          0.65420000       0.64890000       0.72010000
    46  H          0.34580000       0.35110000       0.27990000
    47  H          0.45600000       0.68400000       0.60660000
    48  H          0.54400000       0.31600000       0.39340000
    49  C          0.68436000       0.40643000       0.92258000
    50  C          0.31564000       0.59357000       0.07742000
    51  C          0.71516000       0.27783000       0.84658000
    52  C          0.28484000       0.72217000       0.15342000
    53  C          0.68486000       0.31133000       0.92888000
    54  C          0.31514000       0.68867000       0.07112000
    55  C          0.66995000       0.25252000       0.00932000
    56  C          0.33005000       0.74748000       0.99068000
    57  C          0.67596000       0.15733000       0.01302000
    58  C          0.32404000       0.84267000       0.98698000
    59  C          0.66786000       0.10053000       0.09112000
    60  C          0.33214000       0.89947000       0.90888000
    61  C          0.65636000       0.13402000       0.17232000
    62  C          0.34364000       0.86598000       0.82768000
    63  C          0.64896000       0.22912000       0.16822000
    64  C          0.35104000       0.77088000       0.83178000
    65  C          0.65266000       0.28592000       0.09062000
    66  C          0.34734000       0.71408000       0.90938000
    67  C          0.65666000       0.07493000       0.25322000
    68  C          0.34334000       0.92507000       0.74678000
    69  C          0.66626000       0.98017000       0.25782000
    70  C          0.33374000       0.01983000       0.74218000
    71  C          0.65226000       0.10733000       0.33472000
    72  C          0.34774000       0.89267000       0.66528000
    73  N          0.68357000       0.48352000       0.91658000
    74  N          0.31643000       0.51648000       0.08342000
    75  N          0.74257000       0.25203000       0.78118000
    76  N          0.25743000       0.74797000       0.21882000
    77  N          0.67177000       0.90247000       0.26432000
    78  N          0.32823000       0.09753000       0.73568000
    79  N          0.64997000       0.13303000       0.40002000
    80  N          0.35003000       0.86697000       0.59998000
    81  H          0.68580000       0.13270000       0.95950000
    82  H          0.31420000       0.86730000       0.04050000
    83  H          0.66990000       0.03650000       0.09170000
    84  H          0.33010000       0.96350000       0.90830000
    85  H          0.64120000       0.25380000       0.22170000
    86  H          0.35880000       0.74620000       0.77830000
    87  H          0.64320000       0.34980000       0.09030000
    88  H          0.35680000       0.65020000       0.90970000
    89  C          0.20216000       0.49223000       0.80302000
    90  C          0.79784000       0.50777000       0.19698000
    91  C          0.22146000       0.36693000       0.72202000
    92  C          0.77854000       0.63307000       0.27798000
    93  C          0.20876000       0.39653000       0.80572000
    94  C          0.79124000       0.60347000       0.19428000
    95  C          0.19596000       0.33692000       0.88422000
    96  C          0.80404000       0.66308000       0.11578000
    97  C          0.19776000       0.24193000       0.88612000
    98  C          0.80224000       0.75807000       0.11388000
    99  C          0.18246000       0.18463000       0.96232000
   100  C          0.81754000       0.81537000       0.03768000
   101  C          0.16425000       0.21612000       0.04512000
   102  C          0.83575000       0.78388000       0.95488000
   103  C          0.16246000       0.31193000       0.04342000
   104  C          0.83754000       0.68807000       0.95658000
   105  C          0.17826000       0.36953000       0.96692000
   106  C          0.82174000       0.63047000       0.03308000
   107  C          0.15166000       0.15693000       0.12302000
   108  C          0.84834000       0.84307000       0.87698000
   109  C          0.15197000       0.06143000       0.12552000
   110  C          0.84803000       0.93857000       0.87448000
   111  C          0.13726000       0.18513000       0.20802000
   112  C          0.86274000       0.81487000       0.79198000
   113  N          0.19007000       0.56912000       0.79942000
   114  N          0.80993000       0.43088000       0.20058000
   115  N          0.22846000       0.34563000       0.65462000
   116  N          0.77154000       0.65437000       0.34538000
   117  N          0.15208000       0.98577000       0.12663000
   118  N          0.84792000       0.01423000       0.87337000
   119  N          0.12337000       0.20583000       0.27592000
   120  N          0.87663000       0.79417000       0.72408000
   121  H          0.20990000       0.21850000       0.83180000
   122  H          0.79010000       0.78150000       0.16820000
   123  H          0.18380000       0.12090000       0.96140000
   124  H          0.81620000       0.87910000       0.03860000
   125  H          0.14970000       0.33520000       0.09770000
   126  H          0.85030000       0.66480000       0.90230000
   127  H          0.17800000       0.43320000       0.96740000
   128  H          0.82200000       0.56680000       0.03260000
