data_JIJNEY
_symmetry_space_group_name_H-M    'P1'
_symmetry_Int_Tables_number       1
loop_
_symmetry_equiv_pos_site_id
_symmetry_equiv_pos_as_xyz
1 x,y,z
_cell_length_a                   12.10926
_cell_length_b                   12.20007
_cell_length_c                   12.80407
_cell_angle_alpha                106.9174
_cell_angle_beta                 112.5674
_cell_angle_gamma                92.5594
loop_
_atom_site_label
_atom_site_type_symbol
_atom_site_fract_x
_atom_site_fract_y
_atom_site_fract_z
     1  Cl         0.34180110       0.67506120       0.00213110
     2  Cl         0.65819890       0.32493880      -0.00213110
     3  O          0.21953000       0.62194000       0.96687000
     4  O          0.78047000       0.37806000       0.03313000
     5  O          0.36854000       0.65464000       0.89936000
     6  O          0.63146000       0.34536000       0.10064000
     7  O          0.42384000       0.63185000       0.08454000
     8  O          0.57616000       0.36815000       0.91546000
     9  O          0.35335000       0.79854000       0.05245000
    10  O          0.64665000       0.20146000       0.94755000
    11  O          0.09503000       0.62373000       0.48743000
    12  O          0.90497000       0.37627000       0.51257000
    13  O          0.30893000       0.84353000       0.74193000
    14  O          0.69107000       0.15647000       0.25807000
    15  O          0.59463000       0.92403000       0.30533000
    16  O          0.40537000       0.07597000       0.69467000
    17  O          0.98003000       0.66913000       0.18273000
    18  O          0.01997000       0.33087000       0.81727000
    19  O          0.69333000       0.87343000       0.59463000
    20  O          0.30667000       0.12657000       0.40537000
    21  O          0.91403000       0.08233000       0.85483000
    22  O          0.08597000       0.91767000       0.14517000
    23  N          0.72743000       0.71503000       0.46733000
    24  N          0.27257000       0.28497000       0.53267000
    25  N          0.88853000       0.62363000       0.42463000
    26  N          0.11147000       0.37637000       0.57537000
    27  N          0.65133000       0.84323000       0.15073000
    28  N          0.34867000       0.15677000       0.84927000
    29  N          0.14923000       0.82283000       0.79373000
    30  N          0.85077000       0.17717000       0.20627000
    31  N         -0.00367000       0.91473000       0.84993000
    32  N          0.00367000       0.08527000       0.15007000
    33  N          0.00343000       0.67063000       0.61903000
    34  N         -0.00343000       0.32937000       0.38097000
    35  N          0.28213000      -0.01157000       0.88683000
    36  N          0.71787000       0.01157000       0.11317000
    37  N          0.85013000       0.77493000       0.66133000
    38  N          0.14987000       0.22507000       0.33867000
    39  N          0.81533000       0.64873000       0.22983000
    40  N          0.18467000       0.35127000       0.77017000
    41  N          0.66353000       0.74893000       0.27793000
    42  N          0.33647000       0.25107000       0.72207000
    43  N          0.12103000       0.08493000       0.92663000
    44  N          0.87897000       0.91507000       0.07337000
    45  N          0.80583000       0.74323000       0.10303000
    46  N          0.19417000       0.25677000       0.89697000
    47  C          0.25154000       0.88084000       0.80104000
    48  C          0.74846000       0.11916000       0.19896000
    49  C          0.63234000       0.84684000       0.24984000
    50  C          0.36766000       0.15316000       0.75016000
    51  C          0.87854000       0.68584000       0.17324000
    52  C          0.12146000       0.31416000       0.82676000
    53  C          0.00564000       0.63884000       0.50834000
    54  C         -0.00564000       0.36116000       0.49166000
    55  C          0.00074000       0.03254000       0.87394000
    56  C         -0.00074000       0.96746000       0.12606000
    57  C          0.80094000       0.62554000       0.47684000
    58  C          0.19906000       0.37446000       0.52316000
    59  H          0.74980000       0.54700000       0.44740000
    60  H          0.25020000       0.45300000       0.55260000
    61  C          0.69144000       0.66824000       0.18724000
    62  C          0.30856000       0.33176000       0.81276000
    63  H          0.63210000       0.59330000       0.14660000
    64  H          0.36790000       0.40670000       0.85340000
    65  C          0.11564000       0.88344000       0.89004000
    66  C          0.88436000       0.11656000       0.10996000
    67  H          0.12680000       0.84050000       0.94800000
    68  H          0.87320000       0.15950000       0.05200000
    69  C          0.62654000       0.71224000       0.35924000
    70  C          0.37346000       0.28776000       0.64076000
    71  H          0.57220000       0.76350000       0.38110000
    72  H          0.42780000       0.23650000       0.61890000
    73  H          0.57960000       0.63190000       0.31730000
    74  H          0.42040000       0.36810000       0.68270000
    75  C          0.88294000       0.66424000       0.61384000
    76  C          0.11706000       0.33576000       0.38616000
    77  H          0.86630000       0.60650000       0.64990000
    78  H          0.13370000       0.39350000       0.35010000
    79  C          0.20384000       0.00274000       0.94944000
    80  C          0.79616000      -0.00274000       0.05056000
    81  H          0.25120000       0.01930000       0.03740000
    82  H          0.74880000       0.98070000       0.96260000
    83  C          0.68444000       0.73414000       0.09844000
    84  C          0.31556000       0.26586000       0.90156000
    85  H          0.62200000       0.69040000       0.01560000
    86  H          0.37800000       0.30960000       0.98440000
    87  C          0.75094000       0.79594000       0.57654000
    88  C          0.24906000       0.20406000       0.42346000
    89  C          0.85554000       0.57114000       0.29684000
    90  C          0.14446000       0.42886000       0.70316000
    91  H          0.92660000       0.54250000       0.28530000
    92  H          0.07340000       0.45750000       0.71470000
    93  H          0.78990000       0.50290000       0.26400000
    94  H          0.21010000       0.49710000       0.73600000
    95  C          0.61674000       0.92614000       0.08874000
    96  C          0.38326000       0.07386000       0.91126000
    97  H          0.55670000       0.96690000       0.11230000
    98  H          0.44330000       0.03310000       0.88770000
    99  H          0.57660000       0.88360000       0.00120000
   100  H          0.42340000       0.11640000      -0.00120000
   101  C          0.88544000       0.83224000       0.78924000
   102  C          0.11456000       0.16776000       0.21076000
   103  H          0.81930000       0.87260000       0.79970000
   104  H          0.18070000       0.12740000       0.20030000
   105  H          0.89320000       0.77190000       0.82790000
   106  H          0.10680000       0.22810000       0.17210000
   107  C          0.11104000       0.69904000       0.72824000
   108  C          0.88896000       0.30096000       0.27176000
   109  H          0.17780000       0.66820000       0.70920000
   110  H          0.82220000       0.33180000       0.29080000
   111  H          0.09620000       0.65970000       0.78050000
   112  H          0.90380000       0.34030000       0.21950000
   113  C          0.84164000       0.79004000       0.02784000
   114  C          0.15836000       0.20996000       0.97216000
   115  H          0.77260000       0.76800000       0.94790000
   116  H          0.22740000       0.23200000       0.05210000
   117  H          0.90950000       0.75350000       0.01670000
   118  H          0.09050000       0.24650000       0.98330000
   119  O          0.47813000       0.25003000       0.20493000
   120  O          0.52187000       0.74997000       0.79507000
   121  H          0.55270000       0.24790000       0.21360000
   122  H          0.44730000       0.75210000       0.78640000
   123  H          0.46230000       0.19860000       0.23450000
   124  H          0.53770000       0.80140000       0.76550000
   125  N          0.25573000       0.79553000       0.39953000
   126  N          0.74427000       0.20447000       0.60047000
   127  O          0.41334000       0.44674000       0.24764000
   128  O          0.58666000       0.55326000       0.75236000
   129  O          0.37304000       0.41143000       0.39154000
   130  O          0.62696000       0.58857000       0.60846000
   131  C          0.24324000       0.73734000       0.28764000
   132  C          0.75676000       0.26266000       0.71236000
   133  H          0.20540000       0.76780000       0.22470000
   134  H          0.79460000       0.23220000       0.77530000
   135  C          0.33784000       0.58874000       0.35634000
   136  C          0.66216000       0.41126000       0.64366000
   137  C          0.04954000       0.00274000       0.47804000
   138  C          0.95046000      -0.00274000       0.52196000
   139  H          0.01510000       0.01560000       0.39970000
   140  H         -0.01510000       0.98440000       0.60030000
   141  H          0.11420000       0.07030000       0.53530000
   142  H          0.88580000       0.92970000       0.46470000
   143  C          0.20624000       0.90464000       0.42374000
   144  C          0.79376000       0.09536000       0.57626000
   145  H          0.17490000       0.92580000       0.34990000
   146  H          0.82510000       0.07420000       0.65010000
   147  H          0.27260000       0.96810000       0.48660000
   148  H          0.72740000       0.03190000       0.51340000
   149  C          0.31144000       0.75564000       0.48964000
   150  C          0.68856000       0.24436000       0.51036000
   151  H          0.32260000       0.79980000       0.56860000
   152  H          0.67740000       0.20020000       0.43140000
   153  C          0.35234000       0.65254000       0.47014000
   154  C          0.64766000       0.34746000       0.52986000
   155  H          0.39080000       0.62480000       0.53500000
   156  H          0.60920000       0.37520000       0.46500000
   157  C          0.28514000       0.63364000       0.26394000
   158  C          0.71486000       0.36636000       0.73606000
   159  H          0.27800000       0.59330000       0.18540000
   160  H          0.72200000       0.40670000       0.81460000
   161  C          0.10554000       0.89394000       0.46374000
   162  C          0.89446000       0.10606000       0.53626000
   163  H          0.13820000       0.87940000       0.54120000
   164  H          0.86180000       0.12060000       0.45880000
   165  H          0.04190000       0.82650000       0.40400000
   166  H          0.95810000       0.17350000       0.59600000
   167  C          0.37654000       0.47205000       0.33335000
   168  C          0.62346000       0.52795000       0.66665000
   169  H          0.41780000       0.36570000       0.23970000
   170  H          0.58220000       0.63430000       0.76030000
   171  H          0.58380000       0.63570000       0.76170000
   172  H          0.41620000       0.36430000       0.23830000
   173  O          0.41514000       0.06503000       0.24943000
   174  O          0.58486000       0.93497000       0.75057000
   175  H          0.40730000       0.07980000       0.31670000
   176  H          0.59270000       0.92020000       0.68330000
   177  H          0.46210000       0.01300000       0.25080000
   178  H          0.53790000      -0.01300000       0.74920000
   179  O          0.95566000       0.56844000       0.86996000
   180  O          0.04434000       0.43156000       0.13004000
   181  H          0.00260000       0.59760000       0.94630000
   182  H         -0.00260000       0.40240000       0.05370000
   183  H          0.96220000       0.49590000       0.84320000
   184  H          0.03780000       0.50410000       0.15680000
