data_JILNEB
_symmetry_space_group_name_H-M    'P1'
_symmetry_Int_Tables_number       1
loop_
_symmetry_equiv_pos_site_id
_symmetry_equiv_pos_as_xyz
1 x,y,z
_cell_length_a                   7.53939
_cell_length_b                   10.758612
_cell_length_c                   24.0733
_cell_angle_alpha                90.0
_cell_angle_beta                 91.2753
_cell_angle_gamma                90.0
loop_
_atom_site_label
_atom_site_type_symbol
_atom_site_fract_x
_atom_site_fract_y
_atom_site_fract_z
     1  C          0.04455000       0.07855000       0.07144140
     2  C          0.45545000       0.57855000       0.42855860
     3  C          0.95545000       0.92145000       0.92855860
     4  C          0.54455000       0.42145000       0.57144140
     5  C          0.08085000       0.15194000       0.12329120
     6  C          0.41915000       0.65194000       0.37670880
     7  C          0.91915000       0.84806000       0.87670880
     8  C          0.58085000       0.34806000       0.62329120
     9  H          0.97320000       0.19570000       0.13280000
    10  H          0.52680000       0.69570000       0.36720000
    11  H          0.02680000       0.80430000       0.86720000
    12  H          0.47320000       0.30430000       0.63280000
    13  H          0.17000000       0.21400000       0.11540000
    14  H          0.33000000       0.71400000       0.38460000
    15  H          0.83000000       0.78600000       0.88460000
    16  H          0.67000000       0.28600000       0.61540000
    17  C          0.14365000       0.07764000       0.17384130
    18  C          0.35635000       0.57764000       0.32615870
    19  C          0.85635000       0.92236000       0.82615870
    20  C          0.64365000       0.42236000       0.67384130
    21  H          0.04940000       0.02260000       0.18540000
    22  H          0.45060000       0.52260000       0.31460000
    23  H          0.95060000       0.97740000       0.81460000
    24  H          0.54940000       0.47740000       0.68540000
    25  H          0.24460000       0.02690000       0.16410000
    26  H          0.25540000       0.52690000       0.33590000
    27  H          0.75540000       0.97310000       0.83590000
    28  H          0.74460000       0.47310000       0.66410000
    29  C          0.19585000       0.16324000       0.22136120
    30  C          0.30415000       0.66324000       0.27863880
    31  C          0.80415000       0.83676000       0.77863880
    32  C          0.69585000       0.33676000       0.72136120
    33  H          0.09370000       0.21310000       0.23100000
    34  H          0.40630000       0.71310000       0.26900000
    35  H          0.90630000       0.78690000       0.76900000
    36  H          0.59370000       0.28690000       0.73100000
    37  H          0.28750000       0.21940000       0.20900000
    38  H          0.21250000       0.71940000       0.29100000
    39  H          0.71250000       0.78060000       0.79100000
    40  H          0.78750000       0.28060000       0.70900000
    41  C          0.26335000       0.09534000       0.27315130
    42  C          0.23665000       0.59534000       0.22684870
    43  C          0.73665000       0.90466000       0.72684870
    44  C          0.76335000       0.40466000       0.77315130
    45  H          0.16880000       0.04470000       0.28790000
    46  H          0.33120000       0.54470000       0.21210000
    47  H          0.83120000       0.95530000       0.71210000
    48  H          0.66880000       0.45530000       0.78790000
    49  H          0.36010000       0.04070000       0.26350000
    50  H          0.13990000       0.54070000       0.23650000
    51  H          0.63990000       0.95930000       0.73650000
    52  H          0.86010000       0.45930000       0.76350000
    53  C          0.32625000       0.18633000       0.31668130
    54  C          0.17375000       0.68633000       0.18331870
    55  C          0.67375000       0.81367000       0.68331870
    56  C          0.82625000       0.31367000       0.81668130
    57  H          0.42920000       0.22980000       0.30310000
    58  H          0.07080000       0.72980000       0.19690000
    59  H          0.57080000       0.77020000       0.69690000
    60  H          0.92920000       0.27020000       0.80310000
    61  H          0.23370000       0.24730000       0.32230000
    62  H          0.26630000       0.74730000       0.17770000
    63  H          0.76630000       0.75270000       0.67770000
    64  H          0.73370000       0.25270000       0.82230000
    65  C          0.49375000       0.03854000       0.37415130
    66  C          0.00625000       0.53854000       0.12584870
    67  C          0.50625000       0.96146000       0.62584870
    68  C         -0.00625000       0.46146000       0.87415130
    69  H          0.54520000       0.01030000       0.34170000
    70  H          0.95480000       0.51030000       0.15830000
    71  H          0.45480000      -0.01030000       0.65830000
    72  H          0.04520000       0.48970000       0.84170000
    73  C          0.30135000       0.16823000       0.41750140
    74  C          0.19865000       0.66823000       0.08249860
    75  C          0.69865000       0.83177000       0.58249860
    76  C          0.80135000       0.33177000       0.91750140
    77  H          0.21700000       0.23120000       0.41550000
    78  H          0.28300000       0.73120000       0.08450000
    79  H          0.78300000       0.76880000       0.58450000
    80  H          0.71700000       0.26880000       0.91550000
    81  C          0.34765000       0.11903000       0.46811130
    82  C          0.15235000       0.61903000       0.03188870
    83  C          0.65235000       0.88097000       0.53188870
    84  C          0.84765000       0.38097000       0.96811130
    85  H          0.29410000       0.14880000       0.49990000
    86  H          0.20590000       0.64880000       0.00010000
    87  H          0.70590000       0.85120000       0.50010000
    88  H          0.79410000       0.35120000      -0.00010000
    89  C          0.47164000       0.02643000       0.47264110
    90  C          0.02836000       0.52643000       0.02735890
    91  C          0.52836000       0.97357000       0.52735890
    92  C          0.97164000       0.47357000       0.97264110
    93  C          0.54365000       0.98616000       0.42408130
    94  C          0.95635000       0.48616000       0.07591870
    95  C          0.45635000       0.01384000       0.57591870
    96  C          0.04365000       0.51384000       0.92408130
    97  H          0.62740000       0.92280000       0.42500000
    98  H          0.87260000       0.42280000       0.07500000
    99  H          0.37260000       0.07720000       0.57500000
   100  H          0.12740000       0.57720000       0.92500000
   101  N          0.37394000       0.12803000       0.37115100
   102  N          0.12606000       0.62803000       0.12884900
   103  N          0.62606000       0.87197000       0.62884900
   104  N          0.87394000       0.37197000       0.87115100
   105  O          0.07904000       0.96867000       0.06609100
   106  O          0.42096000       0.46867000       0.43390900
   107  O          0.92096000       0.03133000       0.93390900
   108  O          0.57904000       0.53133000       0.56609100
   109  O          0.97726000       0.14683000       0.03125100
   110  O          0.52274000       0.64683000       0.46874900
   111  O          0.02274000       0.85317000       0.96874900
   112  O          0.47726000       0.35317000       0.53125100
   113  H          0.95890000       0.10340000       0.00370000
   114  H          0.54110000       0.60340000       0.49630000
   115  H          0.04110000       0.89660000      -0.00370000
   116  H          0.45890000       0.39660000       0.50370000
   117  C          0.68874000       0.17883000       0.21523120
   118  C          0.81126000       0.67883000       0.28476880
   119  C          0.31126000       0.82117000       0.78476880
   120  C          0.18874000       0.32117000       0.71523120
   121  C          0.68114000       0.30943000       0.21555120
   122  C          0.81886000       0.80943000       0.28444880
   123  C          0.31886000       0.69057000       0.78444880
   124  C          0.18114000       0.19057000       0.71555120
   125  H          0.72050000       0.35360000       0.24670000
   126  H          0.77950000       0.85360000       0.25330000
   127  H          0.27950000       0.64640000       0.75330000
   128  H          0.22050000       0.14640000       0.74670000
   129  C          0.61584000       0.37103000       0.17008120
   130  C          0.88416000       0.87103000       0.32991880
   131  C          0.38416000       0.62897000       0.82991880
   132  C          0.11584000       0.12897000       0.67008120
   133  H          0.61020000       0.45740000       0.17080000
   134  H          0.88980000       0.95740000       0.32920000
   135  H          0.38980000       0.54260000       0.82920000
   136  H          0.11020000       0.04260000       0.67080000
   137  C          0.55664000       0.30723000       0.12193110
   138  C          0.94336000       0.80723000       0.37806890
   139  C          0.44336000       0.69277000       0.87806890
   140  C          0.05664000       0.19277000       0.62193110
   141  C          0.57004000       0.17563000       0.12134110
   142  C          0.92996000       0.67563000       0.37865890
   143  C          0.42996000       0.82437000       0.87865890
   144  C          0.07004000       0.32437000       0.62134110
   145  C          0.63664000       0.11413000       0.16921120
   146  C          0.86336000       0.61413000       0.33078880
   147  C          0.36336000       0.88587000       0.83078880
   148  C          0.13664000       0.38587000       0.66921120
   149  H          0.64490000       0.02780000       0.16930000
   150  H          0.85510000       0.52780000       0.33070000
   151  H          0.35510000       0.97220000       0.83070000
   152  H          0.14490000       0.47220000       0.66930000
   153  C          0.51374000       0.11273000       0.07287120
   154  C         -0.01374000       0.61273000       0.42712880
   155  C          0.48626000       0.88727000       0.92712880
   156  C          0.01374000       0.38727000       0.57287120
   157  H          0.52260000       0.02650000       0.07160000
   158  H          0.97740000       0.52650000       0.42840000
   159  H          0.47740000       0.97350000       0.92840000
   160  H          0.02260000       0.47350000       0.57160000
   161  C          0.44665000       0.17433000       0.02770120
   162  C          0.05335000       0.67433000       0.47229880
   163  C          0.55335000       0.82567000       0.97229880
   164  C          0.94665000       0.32567000       0.52770120
   165  H          0.41090000       0.13030000      -0.00390000
   166  H          0.08910000       0.63030000       0.50390000
   167  H          0.58910000       0.86970000       0.00390000
   168  H          0.91090000       0.36970000       0.49610000
   169  C          0.43144000       0.30443000       0.02883120
   170  C          0.06856000       0.80443000       0.47116880
   171  C          0.56856000       0.69557000       0.97116880
   172  C          0.93144000       0.19557000       0.52883120
   173  C          0.48634000       0.36933000       0.07461120
   174  C          0.01366000       0.86933000       0.42538880
   175  C          0.51366000       0.63067000       0.92538880
   176  C         -0.01366000       0.13067000       0.57461120
   177  H          0.47740000       0.45550000       0.07480000
   178  H          0.02260000       0.95550000       0.42520000
   179  H          0.52260000       0.54450000       0.92520000
   180  H          0.97740000       0.04450000       0.57480000
   181  O          0.36134000       0.36882000       0.98461100
   182  O          0.13866000       0.86882000       0.51538900
   183  O          0.63866000       0.63118000       0.01538900
   184  O          0.86134000       0.13118000       0.48461100
   185  H          0.34750000       0.32160000       0.95810000
   186  H          0.15250000       0.82160000       0.54190000
   187  H          0.65250000       0.67840000       0.04190000
   188  H          0.84750000       0.17840000       0.45810000
   189  O          0.74883000       0.11382000       0.26072900
   190  O          0.75117000       0.61382000       0.23927100
   191  O          0.25117000       0.88618000       0.73927100
   192  O          0.24883000       0.38618000       0.76072900
   193  H          0.78450000       0.16250000       0.28470000
   194  H          0.71550000       0.66250000       0.21530000
   195  H          0.21550000       0.83750000       0.71530000
   196  H          0.28450000       0.33750000       0.78470000
   197  Br         0.85469400       0.26971400       0.36756200
   198  Br         0.64530600       0.76971400       0.13243800
   199  Br         0.14530600       0.73028600       0.63243800
   200  Br         0.35469400       0.23028600       0.86756200
