data_JILSAB
_symmetry_space_group_name_H-M    'P1'
_symmetry_Int_Tables_number       1
loop_
_symmetry_equiv_pos_site_id
_symmetry_equiv_pos_as_xyz
1 x,y,z
_cell_length_a                   18.01535
_cell_length_b                   4.880201
_cell_length_c                   22.07846
_cell_angle_alpha                90.0
_cell_angle_beta                 104.67901
_cell_angle_gamma                90.0
loop_
_atom_site_label
_atom_site_type_symbol
_atom_site_fract_x
_atom_site_fract_y
_atom_site_fract_z
     1  O          0.37540700       0.07223000       0.92269600
     2  O          0.62459300       0.57223000       0.57730400
     3  O          0.62459300       0.92777000       0.07730400
     4  O          0.37540700       0.42777000       0.42269600
     5  C          0.44027900       0.01893000       0.90391700
     6  C          0.55972100       0.51893000       0.59608300
     7  C          0.55972100      -0.01893000       0.09608300
     8  C          0.44027900       0.48107000       0.40391700
     9  C          0.50249900       0.18324000       0.92751800
    10  C          0.49750100       0.68324000       0.57248200
    11  C          0.49750100       0.81676000       0.07248200
    12  C          0.50249900       0.31676000       0.42751800
    13  H          0.50100000       0.31700000       0.95680000
    14  H          0.49900000       0.81700000       0.54320000
    15  H          0.49900000       0.68300000       0.04320000
    16  H          0.50100000       0.18300000       0.45680000
    17  C          0.56847900       0.14693000       0.90649700
    18  C          0.43152100       0.64693000       0.59350300
    19  C          0.43152100       0.85307000       0.09350300
    20  C          0.56847900       0.35307000       0.40649700
    21  C          0.57258900       0.94614000       0.86304800
    22  C          0.42741100       0.44614000       0.63695200
    23  C          0.42741100       0.05386000       0.13695200
    24  C          0.57258900       0.55386000       0.36304800
    25  H          0.61790000       0.92260000       0.84950000
    26  H          0.38210000       0.42260000       0.65050000
    27  H          0.38210000       0.07740000       0.15050000
    28  H          0.61790000       0.57740000       0.34950000
    29  C          0.51015900       0.78013000       0.84000700
    30  C          0.48984100       0.28013000       0.65999300
    31  C          0.48984100       0.21987000       0.15999300
    32  C          0.51015900       0.71987000       0.34000700
    33  C          0.44164900       0.80973000       0.85973700
    34  C          0.55835100       0.30973000       0.64026300
    35  C          0.55835100       0.19027000       0.14026300
    36  C          0.44164900       0.69027000       0.35973700
    37  C          0.37523900       0.64484000       0.83497800
    38  C          0.62476100       0.14484000       0.66502200
    39  C          0.62476100       0.35516000       0.16502200
    40  C          0.37523900       0.85516000       0.33497800
    41  C          0.30480100       0.70654000       0.85712900
    42  C          0.69519900       0.20654000       0.64287100
    43  C          0.69519900       0.29346000       0.14287100
    44  C          0.30480100       0.79346000       0.35712900
    45  H          0.27240000       0.83180000       0.82660000
    46  H          0.72760000       0.33180000       0.67340000
    47  H          0.72760000       0.16820000       0.17340000
    48  H          0.27240000       0.66820000       0.32660000
    49  H          0.27800000       0.53740000       0.85940000
    50  H          0.72200000       0.03740000       0.64060000
    51  H          0.72200000       0.46260000       0.14060000
    52  H          0.27800000       0.96260000       0.35940000
    53  C          0.32139110       0.84954000       0.91832100
    54  C          0.67860890       0.34954000       0.58167900
    55  C          0.67860890       0.15046000       0.08167900
    56  C          0.32139110       0.65046000       0.41832100
    57  H          0.34940000       0.70320000       0.95310000
    58  H          0.65060000       0.20320000       0.54690000
    59  H          0.65060000       0.29680000       0.04690000
    60  H          0.34940000       0.79680000       0.45310000
    61  C          0.25274100       0.97114000       0.93660900
    62  C          0.74725900       0.47114000       0.56339100
    63  C          0.74725900       0.02886000       0.06339100
    64  C          0.25274100       0.52886000       0.43660900
    65  C          0.17833110       0.88405000       0.91091110
    66  C          0.82166890       0.38405000       0.58908890
    67  C          0.82166890       0.11595000       0.08908890
    68  C          0.17833110       0.61595000       0.41091110
    69  H          0.16860000       0.74940000       0.87950000
    70  H          0.83140000       0.24940000       0.62050000
    71  H          0.83140000       0.25060000       0.12050000
    72  H          0.16860000       0.75060000       0.37950000
    73  C          0.11715110      -0.01125000       0.93082110
    74  C          0.88284890       0.48875000       0.56917890
    75  C          0.88284890       0.01125000       0.06917890
    76  C          0.11715110       0.51125000       0.43082110
    77  H          0.06640000       0.92730000       0.91310000
    78  H          0.93360000       0.42730000       0.58690000
    79  H          0.93360000       0.07270000       0.08690000
    80  H          0.06640000       0.57270000       0.41310000
    81  C          0.12961100       0.18404000       0.97693800
    82  C          0.87038900       0.68404000       0.52306200
    83  C          0.87038900       0.81596000       0.02306200
    84  C          0.12961100       0.31596000       0.47693800
    85  C          0.20344100       0.27164000       0.00335900
    86  C          0.79655900       0.77164000       0.49664100
    87  C          0.79655900       0.72836000      -0.00335900
    88  C          0.20344100       0.22836000       0.50335900
    89  H          0.21230000       0.40440000       0.03500000
    90  H          0.78770000       0.90440000       0.46500000
    91  H          0.78770000       0.59560000       0.96500000
    92  H          0.21230000       0.09560000       0.53500000
    93  C          0.26391100       0.16694000       0.98327800
    94  C          0.73608900       0.66694000       0.51672200
    95  C          0.73608900       0.83306000       0.01672200
    96  C          0.26391100       0.33306000       0.48327800
    97  H          0.31430000       0.22980000       0.00190000
    98  H          0.68570000       0.72980000       0.49810000
    99  H          0.68570000       0.77020000      -0.00190000
   100  H          0.31430000       0.27020000       0.50190000
   101  O          0.06716700       0.28023000      -0.00515300
   102  O          0.93283300       0.78023000       0.50515300
   103  O          0.93283300       0.71977000       0.00515300
   104  O          0.06716700       0.21977000       0.49484700
   105  H          0.08221500       0.40950000       0.01951100
   106  H          0.91778500       0.90950000       0.48048900
   107  H          0.91778500       0.59050000       0.98048900
   108  H          0.08221500       0.09050000       0.51951100
   109  O          0.37358700       0.46223000       0.79543600
   110  O          0.62641300       0.96223000       0.70456400
   111  O          0.62641300       0.53777000       0.20456400
   112  O          0.37358700       0.03777000       0.29543600
   113  O          0.51564700       0.58753000       0.79734600
   114  O          0.48435300       0.08753000       0.70265400
   115  O          0.48435300       0.41247000       0.20265400
   116  O          0.51564700       0.91247000       0.29734600
   117  H          0.47271000       0.50950000       0.78851000
   118  H          0.52729000       0.00950000       0.71149000
   119  H          0.52729000       0.49050000       0.21149000
   120  H          0.47271000      -0.00950000       0.28851000
   121  O          0.62807700       0.31533000       0.93002600
   122  O          0.37192300       0.81533000       0.56997400
   123  O          0.37192300       0.68467000       0.06997400
   124  O          0.62807700       0.18467000       0.43002600
   125  H          0.66441100       0.27750000       0.91281000
   126  H          0.33558900       0.77750000       0.58719000
   127  H          0.33558900       0.72250000       0.08719000
   128  H          0.66441100       0.22250000       0.41281000
   129  N          0.31986800       0.02294000       0.70634700
   130  N          0.68013200       0.52294000       0.79365300
   131  N          0.68013200      -0.02294000       0.29365300
   132  N          0.31986800       0.47706000       0.20634700
   133  C          0.25492900       0.92694000       0.66965800
   134  C          0.74507100       0.42694000       0.83034200
   135  C          0.74507100       0.07306000       0.33034200
   136  C          0.25492900       0.57306000       0.16965800
   137  O          0.25684700       0.75683000       0.62796600
   138  O          0.74315300       0.25683000       0.87203400
   139  O          0.74315300       0.24317000       0.37203400
   140  O          0.25684700       0.74317000       0.12796600
   141  C          0.18099900       0.02474000       0.68007800
   142  C          0.81900100       0.52474000       0.81992200
   143  C          0.81900100      -0.02474000       0.31992200
   144  C          0.18099900       0.47526000       0.18007800
   145  C          0.18013110       0.20385000       0.72918900
   146  C          0.81986890       0.70385000       0.77081100
   147  C          0.81986890       0.79615000       0.27081100
   148  C          0.18013110       0.29615000       0.22918900
   149  H          0.22750000       0.26650000       0.75470000
   150  H          0.77250000       0.76650000       0.74530000
   151  H          0.77250000       0.73350000       0.24530000
   152  H          0.22750000       0.23350000       0.25470000
   153  C          0.11317120       0.29296000       0.74146110
   154  C          0.88682880       0.79296000       0.75853890
   155  C          0.88682880       0.70704000       0.25853890
   156  C          0.11317120       0.20704000       0.24146110
   157  H          0.11550000       0.41140000       0.77480000
   158  H          0.88450000       0.91140000       0.72520000
   159  H          0.88450000       0.58860000       0.22520000
   160  H          0.11550000       0.08860000       0.27480000
   161  C          0.04389120       0.20225000       0.70419100
   162  C          0.95610880       0.70225000       0.79580900
   163  C          0.95610880       0.79775000       0.29580900
   164  C          0.04389120       0.29775000       0.20419100
   165  H         -0.00310000       0.26030000       0.71310000
   166  H          0.00310000       0.76030000       0.78690000
   167  H          0.00310000       0.73970000       0.28690000
   168  H         -0.00310000       0.23970000       0.21310000
   169  C          0.04235100       0.02864000       0.65550900
   170  C          0.95764900       0.52864000       0.84449100
   171  C          0.95764900       0.97136000       0.34449100
   172  C          0.04235100       0.47136000       0.15550900
   173  H         -0.00480000       0.96870000       0.62930000
   174  H          0.00480000       0.46870000       0.87070000
   175  H          0.00480000       0.03130000       0.37070000
   176  H         -0.00480000       0.53130000       0.12930000
   177  C          0.10990900       0.93794000       0.64156800
   178  C          0.89009100       0.43794000       0.85843200
   179  C          0.89009100       0.06206000       0.35843200
   180  C          0.10990900       0.56206000       0.14156800
   181  N          0.10411900       0.78114000       0.58840800
   182  N          0.89588100       0.28114000       0.91159200
   183  N          0.89588100       0.21886000       0.41159200
   184  N          0.10411900       0.71886000       0.08840800
   185  H          0.06121000       0.70040000       0.57289000
   186  H          0.93879000       0.20040000       0.92711000
   187  H          0.93879000       0.29960000       0.42711000
   188  H          0.06121000       0.79960000       0.07289000
   189  H          0.14531000       0.68940000       0.58589000
   190  H          0.85469000       0.18940000       0.91411000
   191  H          0.85469000       0.31060000       0.41411000
   192  H          0.14531000       0.81060000       0.08589000
   193  H          0.36479000       0.96540000       0.70129000
   194  H          0.63521000       0.46540000       0.79871000
   195  H          0.63521000       0.03460000       0.29871000
   196  H          0.36479000       0.53460000       0.20129000
   197  H          0.32041000       0.15140000       0.73329000
   198  H          0.67959000       0.65140000       0.76671000
   199  H          0.67959000       0.84860000       0.26671000
   200  H          0.32041000       0.34860000       0.23329000
