data_JILYEL
_symmetry_space_group_name_H-M    'P1'
_symmetry_Int_Tables_number       1
loop_
_symmetry_equiv_pos_site_id
_symmetry_equiv_pos_as_xyz
1 x,y,z
_cell_length_a                   8.89442
_cell_length_b                   10.84013
_cell_length_c                   13.36063
_cell_angle_alpha                70.54601
_cell_angle_beta                 81.48001
_cell_angle_gamma                79.68401
loop_
_atom_site_label
_atom_site_type_symbol
_atom_site_fract_x
_atom_site_fract_y
_atom_site_fract_z
     1  C          0.13985140       0.25362120       0.92379100
     2  C          0.86014860       0.74637880       0.07620900
     3  C          0.26198160       0.22230150       0.85518120
     4  C          0.73801840       0.77769850       0.14481880
     5  H          0.25571600       0.16170100       0.81892200
     6  H          0.74428400       0.83829900       0.18107800
     7  C          0.39325160       0.28052150       0.84019120
     8  C          0.60674840       0.71947850       0.15980880
     9  H          0.47576300       0.25955800       0.79199900
    10  H          0.52423700       0.74044200       0.20800100
    11  C          0.29464160       0.39063140       0.95944110
    12  C          0.70535840       0.60936860       0.04055890
    13  H          0.30661000       0.44768500      -0.00245300
    14  H          0.69339000       0.55231500       0.00245300
    15  C          0.15827150       0.33785140       0.97826110
    16  C          0.84172850       0.66214860       0.02173890
    17  H          0.07837400       0.35919200       0.02793200
    18  H          0.92162600       0.64080800       0.97206800
    19  C         -0.01070140       0.19978130       0.94399100
    20  C          0.01070140       0.80021870       0.05600900
    21  C          0.84234860       0.03425120       0.80248100
    22  C          0.15765140       0.96574880       0.19751900
    23  C          0.96402860       0.04715130       0.71021100
    24  C          0.03597140       0.95284870       0.28978900
    25  C          0.10591160       0.96916850       0.72438110
    26  C          0.89408840       0.03083150       0.27561890
    27  H          0.12610100       0.90902600       0.79279200
    28  H          0.87389900       0.09097400       0.20720800
    29  C          0.21859170       0.97833830       0.63941120
    30  C          0.78140830       0.02166170       0.36058880
    31  H          0.31485600       0.92358200       0.64953200
    32  H          0.68514400       0.07641800       0.35046800
    33  C          0.19086170       0.06680160       0.54045110
    34  C          0.80913830       0.93319840       0.45954890
    35  H          0.26801300       0.07310300       0.48230600
    36  H          0.73198700       0.92689700       0.51769400
    37  C          0.05129180       0.14613150       0.52574120
    38  C          0.94870820       0.85386850       0.47425880
    39  H          0.03279800       0.20776900       0.45758400
    40  H          0.96720200       0.79223100       0.54241600
    41  C          0.93740840       0.13637140       0.61019110
    42  C          0.06259160       0.86362860       0.38980890
    43  H          0.84108300       0.19088300       0.59946900
    44  H          0.15891700       0.80911700       0.40053100
    45  C          0.71735860       0.95867880       0.80892100
    46  C          0.28264140       0.04132120       0.19107900
    47  C          0.58750850       0.96073870       0.88220100
    48  C          0.41249150       0.03926130       0.11779900
    49  H          0.57656000       0.01724700       0.92477200
    50  H          0.42344000       0.98275300       0.07522800
    51  C          0.47555850       0.88308870       0.89407100
    52  C          0.52444150       0.11691130       0.10592900
    53  H          0.38785700       0.88773100       0.94348800
    54  H          0.61214300       0.11226900       0.05651200
    55  C          0.49019860       0.79667870       0.83335100
    56  C          0.50980140       0.20332130       0.16664900
    57  C          0.61652850       0.79792870       0.75697110
    58  C          0.38347150       0.20207130       0.24302890
    59  H          0.62572600       0.74412000       0.71234900
    60  H          0.37427400       0.25588000       0.28765100
    61  C          0.72803850       0.87678870       0.74591100
    62  C          0.27196150       0.12321130       0.25408900
    63  H          0.81368900       0.87521700       0.69437200
    64  H          0.18631100       0.12478300       0.30562800
    65  N          0.96699870       0.14840120       0.86918900
    66  N          0.03300130       0.85159880       0.13081100
    67  N          0.40969130       0.36442110       0.88991900
    68  N          0.59030870       0.63557890       0.11008100
    69  N          0.84346880       0.08243110       0.87887900
    70  N          0.15653120       0.91756890       0.12112100
    71  N          0.38512860       0.71199870       0.85089110
    72  N          0.61487140       0.28800130       0.14910890
    73  O          0.89833890       0.20463100       0.02107800
    74  O          0.10166110       0.79536900       0.97892200
    75  H          0.03520000       0.15451700       0.81291400
    76  H          0.96480000       0.84548300       0.18708600
    77  H          0.29880000       0.71858200       0.89691500
    78  H          0.70120000       0.28141800       0.10308500
    79  H          0.38780000       0.66788300       0.80401400
    80  H          0.61220000       0.33211700       0.19598600
    81  C          0.90228150       0.48577130       0.72024110
    82  C          0.09771850       0.51422870       0.27975890
    83  C          0.00521160       0.45734140       0.63957120
    84  C         -0.00521160       0.54265860       0.36042880
    85  H          0.97785000       0.40719800       0.60043000
    86  H          0.02215000       0.59280200       0.39957000
    87  C          0.14761160       0.50112150       0.61520120
    88  C          0.85238840       0.49887850       0.38479880
    89  H          0.21779500       0.48008100       0.56039900
    90  H          0.78220500       0.51991900       0.43960100
    91  C          0.18696150       0.57616140       0.67167110
    92  C          0.81303850       0.42383860       0.32832890
    93  C          0.08355160       0.60709140       0.75104110
    94  C          0.91644840       0.39290860       0.24895890
    95  H          0.10944400       0.65964100       0.78867600
    96  H          0.89055600       0.34035900       0.21132400
    97  C          0.94298150       0.56163140       0.77549110
    98  C          0.05701850       0.43836860       0.22450890
    99  H          0.87317400       0.58229400       0.83060100
   100  H          0.12682600       0.41770600       0.16939900
   101  C          0.75078150       0.43601130       0.74753110
   102  C          0.24921850       0.56398870       0.25246890
   103  O          0.67535120       0.45581110       0.83423800
   104  O          0.32464880       0.54418890       0.16576200
   105  O          0.70369120       0.38147110       0.69419900
   106  O          0.29630880       0.61852890       0.30580100
   107  O          0.32530120       0.62069120       0.65253900
   108  O          0.67469880       0.37930880       0.34746100
   109  H          0.57330000       0.42220000       0.85391800
   110  H          0.42670000       0.57780000       0.14608200
   111  H          0.37030000       0.61420000       0.58661900
   112  H          0.62970000       0.38580000       0.41338100
   113  C          0.51172000       0.77608190       0.41885160
   114  C          0.48828000       0.22391810       0.58114840
   115  H          0.50658400       0.81028300       0.47873000
   116  H          0.49341600       0.18971700       0.52127000
   117  H          0.44437000       0.83621100       0.36604700
   118  H          0.55563000       0.16378900       0.63395300
   119  H          0.61755000       0.76929600       0.38578000
   120  H          0.38245000       0.23070400       0.61422000
   121  O          0.46345140       0.64944120       0.45643100
   122  O          0.53654860       0.35055880       0.54356900
   123  H          0.41730000       0.63520000       0.40861800
   124  H          0.58270000       0.36480000       0.59138200
