data_JIMDOY
_symmetry_space_group_name_H-M    'P1'
_symmetry_Int_Tables_number       1
loop_
_symmetry_equiv_pos_site_id
_symmetry_equiv_pos_as_xyz
1 x,y,z
_cell_length_a                   7.7632
_cell_length_b                   8.0411
_cell_length_c                   7.9262
_cell_angle_alpha                81.122
_cell_angle_beta                 99.162
_cell_angle_gamma                108.611
loop_
_atom_site_label
_atom_site_type_symbol
_atom_site_fract_x
_atom_site_fract_y
_atom_site_fract_z
     1  Br         0.90331000       0.79381000       0.19301000
     2  Br         0.09669000       0.20619000       0.80699000
     3  O          0.58445000       0.92025000       0.20236000
     4  O          0.41555000       0.07975000       0.79764000
     5  C          0.65777000       0.68766000       0.10825000
     6  C          0.34223000       0.31234000       0.89175000
     7  C          0.52767000       0.78616000       0.12666000
     8  C          0.47233000       0.21384000       0.87334000
     9  C          0.33797000       0.71556000       0.05257000
    10  C          0.66203000       0.28444000       0.94743000
    11  C          0.27807000       0.56637000       0.97704000
    12  C          0.72193000       0.43363000       0.02296000
    13  C          0.59756000       0.53486000       0.03465000
    14  C          0.40244000       0.46514000       0.96535000
    15  H          0.24299600       0.78448600       0.05828500
    16  H          0.75700400       0.21551400       0.94171500
    17  H          0.15210000       0.52659000       0.92771000
    18  H          0.84790000       0.47341000       0.07229000
    19  Br         0.06511000       0.25221000       0.30651000
    20  Br         0.93489000       0.74779000       0.69349000
    21  O          0.33835000       0.07325000       0.27165000
    22  O          0.66165000       0.92675000       0.72835000
    23  C          0.32116000       0.32236000       0.38646000
    24  C          0.67884000       0.67764000       0.61354000
    25  C          0.42237000       0.21626000       0.36006000
    26  C          0.57763000       0.78374000       0.63994000
    27  C          0.61147000       0.26256000       0.42206000
    28  C          0.38853000       0.73744000       0.57794000
    29  C          0.69667000       0.40886000       0.50656000
    30  C          0.30333000       0.59114000       0.49344000
    31  C          0.40296000       0.47676000       0.46995000
    32  C          0.59704000       0.52324000       0.53005000
    33  H          0.67289500       0.16048600       0.42258700
    34  H          0.32710500       0.83951400       0.57741300
    35  H          0.83010000       0.43029200       0.54568900
    36  H          0.16990000       0.56970800       0.45431100
