data_JIQCER
_symmetry_space_group_name_H-M    'P1'
_symmetry_Int_Tables_number       1
loop_
_symmetry_equiv_pos_site_id
_symmetry_equiv_pos_as_xyz
1 x,y,z
_cell_length_a                   5.73066
_cell_length_b                   16.3111
_cell_length_c                   23.9102
_cell_angle_alpha                90.0
_cell_angle_beta                 90.0
_cell_angle_gamma                90.0
loop_
_atom_site_label
_atom_site_type_symbol
_atom_site_fract_x
_atom_site_fract_y
_atom_site_fract_z
     1  N          0.79633000       0.09122000       0.47301000
     2  N          0.70367000       0.90878000       0.97301000
     3  N          0.29633000       0.40878000       0.52699000
     4  N          0.20367000       0.59122000       0.02699000
     5  C          0.83372000       0.11742000       0.52572000
     6  C          0.66628000       0.88258000       0.02572000
     7  C          0.33372000       0.38258000       0.47428000
     8  C          0.16628000       0.61742000       0.97428000
     9  N          0.67463000       0.09802000       0.56462000
    10  N          0.82537000       0.90198000       0.06462000
    11  N          0.17463000       0.40198000       0.43538000
    12  N          0.32537000       0.59802000       0.93538000
    13  N          0.02237000       0.16192000       0.54201000
    14  N          0.47763000       0.83808000       0.04201000
    15  N          0.52237000       0.33808000       0.45799000
    16  N         -0.02237000       0.66192000       0.95799000
    17  C          0.17459000       0.18093000       0.50202000
    18  C          0.32541000       0.81907000       0.00202000
    19  C          0.67459000       0.31907000       0.49798000
    20  C          0.82541000       0.68093000      -0.00202000
    21  C          0.14649000       0.15923000       0.44702000
    22  C          0.35351000       0.84077000       0.94702000
    23  C          0.64649000       0.34077000       0.55298000
    24  C          0.85351000       0.65923000       0.05298000
    25  C          0.95271000       0.11283000       0.43452000
    26  C          0.54729000       0.88717000       0.93452000
    27  C          0.45271000       0.38717000       0.56548000
    28  C          0.04729000       0.61283000       0.06548000
    29  H          0.53098600       0.05804000       0.55102000
    30  H          0.96901400       0.94196000       0.05102000
    31  H          0.03098600       0.44196000       0.44898000
    32  H          0.46901400       0.55804000       0.94898000
    33  H          0.69391000       0.12202000       0.60081900
    34  H          0.80609000       0.87798000       0.10081900
    35  H          0.19391000       0.37798000       0.39918100
    36  H          0.30609000       0.62202000       0.89918100
    37  H          0.32001200       0.21003000       0.51702000
    38  H          0.17998800       0.78997000       0.01702000
    39  H          0.82001200       0.28997000       0.48298000
    40  H          0.67998800       0.71003000       0.98298000
    41  H          0.26301000       0.17803000       0.41801900
    42  H          0.23699000       0.82197000       0.91801900
    43  H          0.76301000       0.32197000       0.58198100
    44  H          0.73699000       0.67803000       0.08198100
    45  H          0.91991000       0.09402000       0.39791800
    46  H          0.58009000       0.90598000       0.89791800
    47  H          0.41991000       0.40598000       0.60208200
    48  H          0.08009000       0.59402000       0.10208200
    49  N         -0.00497000       0.35602000       0.01321000
    50  N          0.50497000       0.64398000       0.51321000
    51  N          0.49503000       0.14398000       0.98679000
    52  N          0.00497000       0.85602000       0.48679000
    53  C          0.08501000       0.38703000       0.96042000
    54  C          0.41499000       0.61297000       0.46042000
    55  C          0.58501000       0.11297000       0.03958000
    56  C          0.91499000       0.88703000       0.53958000
    57  C          0.80411000       0.38512000       0.04292000
    58  C          0.69589000       0.61488000       0.54292000
    59  C          0.30411000       0.11488000       0.95708000
    60  C          0.19589000       0.88512000       0.45708000
    61  C          0.65812000       0.45233000       0.02342000
    62  C          0.84188000       0.54767000       0.52342000
    63  C          0.15812000       0.04767000       0.97658000
    64  C          0.34188000       0.95233000       0.47658000
    65  O          0.50144000       0.47492000       0.06091000
    66  O         -0.00144000       0.52508000       0.56091000
    67  O          0.00144000       0.02508000       0.93909000
    68  O          0.49856000       0.97492000       0.43909000
    69  O          0.67673000       0.48472000       0.97761000
    70  O          0.82327000       0.51528000       0.47761000
    71  O          0.17673000       0.01528000       0.02239000
    72  O          0.32327000       0.98472000       0.52239000
    73  C          0.78159000       0.33683000       0.08982000
    74  C          0.71841000       0.66317000       0.58982000
    75  C          0.28159000       0.16317000       0.91018000
    76  C          0.21841000       0.83683000       0.41018000
    77  C          0.95708900       0.27823000       0.08922000
    78  C          0.54291100       0.72177000       0.58922000
    79  C          0.45708900       0.22177000       0.91078000
    80  C          0.04291100       0.77823000       0.41078000
    81  C          0.08901000       0.29103000       0.04182000
    82  C          0.41099000       0.70897000       0.54182000
    83  C          0.58901000       0.20897000       0.95818000
    84  C          0.91099000       0.79103000       0.45818000
    85  H         -0.01850000       0.37150000       0.93070000
    86  H          0.51850000       0.62850000       0.43070000
    87  H          0.48150000       0.12850000       0.06930000
    88  H          0.01850000       0.87150000       0.56930000
    89  H          0.23680000       0.36420000       0.95370000
    90  H          0.26320000       0.63580000       0.45370000
    91  H          0.73680000       0.13580000       0.04630000
    92  H          0.76320000       0.86420000       0.54630000
    93  H          0.09600000       0.44560000       0.96210000
    94  H          0.40400000       0.55440000       0.46210000
    95  H          0.59600000       0.05440000       0.03790000
    96  H          0.90400000       0.94560000       0.53790000
    97  H          0.41598600       0.52704000       0.04403000
    98  H          0.08401400       0.47296000       0.54403000
    99  H          0.91598600       0.97296000       0.95597000
   100  H          0.58401400       0.02704000       0.45597000
   101  H          0.65499000       0.34803000       0.11831800
   102  H          0.84501000       0.65197000       0.61831800
   103  H          0.15499000       0.15197000       0.88168200
   104  H          0.34501000       0.84803000       0.38168200
   105  H         -0.02301000       0.23203000       0.11731800
   106  H          0.52301000       0.76797000       0.61731800
   107  H          0.47699000       0.26797000       0.88268200
   108  H          0.02301000       0.73203000       0.38268200
   109  H          0.25001400       0.26204000       0.02502000
   110  H          0.24998600       0.73796000       0.52502000
   111  H          0.75001400       0.23796000       0.97498000
   112  H          0.74998600       0.76204000       0.47498000
   113  N          0.96003000       0.24282000       0.74831000
   114  N          0.53997000       0.75718000       0.24831000
   115  N          0.46003000       0.25718000       0.25169000
   116  N          0.03997000       0.74282000       0.75169000
   117  C          0.92472000       0.21783000       0.69512000
   118  C          0.57528000       0.78217000       0.19512000
   119  C          0.42472000       0.28217000       0.30488000
   120  C          0.07528000       0.71783000       0.80488000
   121  N          0.07968000       0.24062000       0.65602000
   122  N          0.42032000       0.75938000       0.15602000
   123  N          0.57968000       0.25938000       0.34398000
   124  N          0.92032000       0.74062000       0.84398000
   125  N          0.74283000       0.17022000       0.67841000
   126  N          0.75717000       0.82978000       0.17841000
   127  N          0.24283000       0.32978000       0.32159000
   128  N          0.25717000       0.67022000       0.82159000
   129  C          0.59391000       0.14763000       0.71762000
   130  C          0.90609000       0.85237000       0.21762000
   131  C          0.09391000       0.35237000       0.28238000
   132  C          0.40609000       0.64763000       0.78238000
   133  C          0.61801000       0.16813000       0.77312000
   134  C          0.88199000       0.83187000       0.27312000
   135  C          0.11801000       0.33187000       0.22688000
   136  C          0.38199000       0.66813000       0.72688000
   137  C          0.80511000       0.21773000       0.78622000
   138  C          0.69489000       0.78227000       0.28622000
   139  C          0.30511000       0.28227000       0.21378000
   140  C          0.19489000       0.71773000       0.71378000
   141  H          0.21801100       0.27003000       0.67202000
   142  H          0.28198900       0.72997000       0.17202000
   143  H          0.71801100       0.22997000       0.32798000
   144  H          0.78198900       0.77003000       0.82798000
   145  H          0.06301100       0.21203000       0.61302000
   146  H          0.43698900       0.78797000       0.11302000
   147  H          0.56301100       0.28797000       0.38698000
   148  H          0.93698900       0.71203000       0.88698000
   149  H          0.44898900       0.11503000       0.70702000
   150  H          0.05101100       0.88497000       0.20702000
   151  H          0.94898900       0.38497000       0.29298000
   152  H          0.55101100       0.61503000       0.79298000
   153  H          0.51799000       0.15003000       0.79991900
   154  H         -0.01799000       0.84997000       0.29991900
   155  H          0.01799000       0.34997000       0.20008100
   156  H          0.48201000       0.65003000       0.70008100
   157  H          0.84291000       0.23603000       0.82602000
   158  H          0.65709000       0.76397000       0.32602000
   159  H          0.34291000       0.26397000       0.17398000
   160  H          0.15709000       0.73603000       0.67398000
   161  N          0.78537000       0.46402000       0.75061000
   162  N          0.71463000       0.53598000       0.25061000
   163  N          0.28537000       0.03598000       0.24939000
   164  N          0.21463000       0.96402000       0.74939000
   165  C          0.83501100       0.46023000       0.69102000
   166  C          0.66498900       0.53977000       0.19102000
   167  C          0.33501100       0.03977000       0.30898000
   168  C          0.16498900       0.96023000       0.80898000
   169  C          0.60509000       0.42733000       0.77972000
   170  C          0.89491000       0.57267000       0.27972000
   171  C          0.10509000       0.07267000       0.22028000
   172  C          0.39491000       0.92733000       0.72028000
   173  C          0.43229000       0.37492000       0.75352000
   174  C          0.06771000       0.62508000       0.25352000
   175  C          0.93229000       0.12508000       0.24648000
   176  C          0.56771000       0.87492000       0.74648000
   177  O          0.28736000       0.34252000       0.79031000
   178  O          0.21264000       0.65748000       0.29031000
   179  O          0.78736000       0.15748000       0.20969000
   180  O          0.71264000       0.84252000       0.70969000
   181  O          0.42077000       0.36072000       0.70371000
   182  O          0.07923000       0.63928000       0.20371000
   183  O          0.92077000       0.13928000       0.29629000
   184  O          0.57923000       0.86072000       0.79629000
   185  C          0.62989000       0.44863000       0.83562000
   186  C          0.87011000       0.55137000       0.33562000
   187  C          0.12989000       0.05137000       0.16438000
   188  C          0.37011000       0.94863000       0.66438000
   189  C          0.82661000       0.49913000       0.83992000
   190  C          0.67339000       0.50087000       0.33992000
   191  C          0.32661000       0.00087000       0.16008000
   192  C          0.17339000      -0.00087000       0.66008000
   193  C          0.91691000       0.50713000       0.78752000
   194  C          0.58309000       0.49287000       0.28752000
   195  C          0.41691000      -0.00713000       0.21248000
   196  C          0.08309000       0.00713000       0.71248000
   197  H          0.86300000       0.40430000       0.68040000
   198  H          0.63700000       0.59570000       0.18040000
   199  H          0.36300000       0.09570000       0.31960000
   200  H          0.13700000       0.90430000       0.81960000
   201  H          0.97080000       0.49250000       0.68290000
   202  H          0.52920000       0.50750000       0.18290000
   203  H          0.47080000       0.00750000       0.31710000
   204  H          0.02920000      -0.00750000       0.81710000
   205  H          0.70420000       0.48120000       0.67050000
   206  H          0.79580000       0.51880000       0.17050000
   207  H          0.20420000       0.01880000       0.32950000
   208  H          0.29580000       0.98120000       0.82950000
   209  H          0.15901200       0.30404000       0.77002000
   210  H          0.34098800       0.69596000       0.27002000
   211  H          0.65901200       0.19596000       0.22998000
   212  H          0.84098800       0.80404000       0.72998000
   213  H          0.53301000       0.43403000       0.86591700
   214  H          0.96699000       0.56597000       0.36591700
   215  H          0.03301000       0.06597000       0.13408300
   216  H          0.46699000       0.93403000       0.63408300
   217  H          0.87401000       0.52303000       0.87681900
   218  H          0.62599000       0.47697000       0.37681900
   219  H          0.37401000       0.97697000       0.12318100
   220  H          0.12599000       0.02303000       0.62318100
   221  H          0.05601000       0.53103000       0.77251700
   222  H          0.44399000       0.46897000       0.27251700
   223  H          0.55601000       0.96897000       0.22748300
   224  H          0.94399000       0.03103000       0.72748300
