data_JIRWOX
_symmetry_space_group_name_H-M    'P1'
_symmetry_Int_Tables_number       1
loop_
_symmetry_equiv_pos_site_id
_symmetry_equiv_pos_as_xyz
1 x,y,z
_cell_length_a                   14.8863
_cell_length_b                   23.1904
_cell_length_c                   7.063814
_cell_angle_alpha                90.0
_cell_angle_beta                 90.0
_cell_angle_gamma                90.0
loop_
_atom_site_label
_atom_site_type_symbol
_atom_site_fract_x
_atom_site_fract_y
_atom_site_fract_z
     1  N          0.33949170       0.46505140       0.79205000
     2  N          0.66050830       0.53494860       0.29205000
     3  N          0.83949170       0.03494860       0.79205000
     4  N          0.16050830       0.96505140       0.29205000
     5  C          0.30862000       0.51545170       0.73356000
     6  C          0.69138000       0.48454830       0.23356000
     7  C          0.80862000       0.98454830       0.73356000
     8  C          0.19138000       0.01545170       0.23356000
     9  H          0.35050000       0.54280000       0.69470000
    10  H          0.64950000       0.45720000       0.19470000
    11  H          0.85050000       0.95720000       0.69470000
    12  H          0.14950000       0.04280000       0.19470000
    13  C          0.21882000       0.53074140       0.72556000
    14  C          0.78118000       0.46925860       0.22556000
    15  C          0.71882000       0.96925860       0.72556000
    16  C          0.28118000       0.03074140       0.22556000
    17  H          0.20120000       0.56700000       0.68360000
    18  H          0.79880000       0.43300000       0.18360000
    19  H          0.70120000       0.93300000       0.68360000
    20  H          0.29880000       0.06700000       0.18360000
    21  C          0.15569180       0.49012140       0.78225000
    22  C          0.84430820       0.50987860       0.28225000
    23  C          0.65569180       0.00987860       0.78225000
    24  C          0.34430820       0.99012140       0.28225000
    25  C          0.18662000       0.43721140       0.84555000
    26  C          0.81338000       0.56278860       0.34555000
    27  C          0.68662000       0.06278860       0.84555000
    28  C          0.31338000       0.93721140       0.34555000
    29  H          0.14660000       0.40890000       0.88540000
    30  H          0.85340000       0.59110000       0.38540000
    31  H          0.64660000       0.09110000       0.88540000
    32  H          0.35340000       0.90890000       0.38540000
    33  C          0.27802000       0.42734160       0.84836000
    34  C          0.72198000       0.57265840       0.34836000
    35  C          0.77802000       0.07265840       0.84836000
    36  C          0.22198000       0.92734160       0.34836000
    37  H          0.29780000       0.39180000       0.89270000
    38  H          0.70220000       0.60820000       0.39270000
    39  H          0.79780000       0.10820000       0.89270000
    40  H          0.20220000       0.89180000       0.39270000
    41  C          0.05883190       0.50592150       0.77896000
    42  C          0.94116810       0.49407850       0.27896000
    43  C          0.55883190      -0.00592150       0.77896000
    44  C          0.44116810       0.00592150       0.27896000
    45  O          0.03472140       0.55587900       0.80764000
    46  O          0.96527860       0.44412100       0.30764000
    47  O          0.53472140       0.94412100       0.80764000
    48  O          0.46527860       0.05587900       0.30764000
    49  N          0.00106160       0.46234120       0.74745000
    50  N         -0.00106160       0.53765880       0.24745000
    51  N          0.50106160       0.03765880       0.74745000
    52  N          0.49893840       0.96234120       0.24745000
    53  H          0.02050000       0.42850000       0.71870000
    54  H          0.97950000       0.57150000       0.21870000
    55  H          0.52050000       0.07150000       0.71870000
    56  H          0.47950000       0.92850000       0.21870000
    57  N          0.91027150       0.47280110       0.76195000
    58  N          0.08972850       0.52719890       0.26195000
    59  N          0.41027150       0.02719890       0.76195000
    60  N          0.58972850       0.97280110       0.26195000
    61  C          0.85872000       0.43109140       0.71595000
    62  C          0.14128000       0.56890860       0.21595000
    63  C          0.35872000       0.06890860       0.71595000
    64  C          0.64128000       0.93109140       0.21595000
    65  H          0.88320000       0.39640000       0.67420000
    66  H          0.11680000       0.60360000       0.17420000
    67  H          0.38320000       0.10360000       0.67420000
    68  H          0.61680000       0.89640000       0.17420000
    69  C          0.76158190       0.43778130       0.72865000
    70  C          0.23841810       0.56221870       0.22865000
    71  C          0.26158190       0.06221870       0.72865000
    72  C          0.73841810       0.93778130       0.22865000
    73  C          0.72222000       0.49220130       0.74895000
    74  C          0.27778000       0.50779870       0.24895000
    75  C          0.22222000       0.00779870       0.74895000
    76  C          0.77778000       0.99220130       0.24895000
    77  H          0.75810000       0.52500000       0.75480000
    78  H          0.24190000       0.47500000       0.25480000
    79  H          0.25810000       0.97500000       0.75480000
    80  H          0.74190000       0.02500000       0.25480000
    81  C          0.63012000       0.49711130       0.76046000
    82  C          0.36988000       0.50288870       0.26046000
    83  C          0.13012000       0.00288870       0.76046000
    84  C          0.86988000      -0.00288870       0.26046000
    85  Cl         0.58199600       0.56505400       0.78214170
    86  Cl         0.41800400       0.43494600       0.28214170
    87  Cl         0.08199600       0.93494600       0.78214170
    88  Cl         0.91800400       0.06505400       0.28214170
    89  C          0.57412000       0.45001130       0.75256000
    90  C          0.42588000       0.54998870       0.25256000
    91  C          0.07412000       0.04998870       0.75256000
    92  C          0.92588000       0.95001130       0.25256000
    93  H          0.51210000       0.45450000       0.76070000
    94  H          0.48790000       0.54550000       0.26070000
    95  H          0.01210000       0.04550000       0.76070000
    96  H          0.98790000       0.95450000       0.26070000
    97  C          0.61152000       0.39588140       0.73225000
    98  C          0.38848000       0.60411860       0.23225000
    99  C          0.11152000       0.10411860       0.73225000
   100  C          0.88848000       0.89588140       0.23225000
   101  C          0.70505190       0.39018130       0.72255000
   102  C          0.29494810       0.60981870       0.22255000
   103  C          0.20505190       0.10981870       0.72255000
   104  C          0.79494810       0.89018130       0.22255000
   105  O          0.56453130       0.34591900       0.71994000
   106  O          0.43546870       0.65408100       0.21994000
   107  O          0.06453130       0.15408100       0.71994000
   108  O          0.93546870       0.84591900       0.21994000
   109  C          0.47092000       0.34770140       0.76637000
   110  C          0.52908000       0.65229860       0.26637000
   111  C          0.97092000       0.15229860       0.76637000
   112  C          0.02908000       0.84770140       0.26637000
   113  H          0.46320000       0.36550000       0.88800000
   114  H          0.53680000       0.63450000       0.38800000
   115  H          0.96320000       0.13450000       0.88800000
   116  H          0.03680000       0.86550000       0.38800000
   117  H          0.44740000       0.30920000       0.76970000
   118  H          0.55260000       0.69080000       0.26970000
   119  H          0.94740000       0.19080000       0.76970000
   120  H          0.05260000       0.80920000       0.26970000
   121  H          0.43930000       0.36970000       0.67230000
   122  H          0.56070000       0.63030000       0.17230000
   123  H          0.93930000       0.13030000       0.67230000
   124  H          0.06070000       0.86970000       0.17230000
   125  O          0.74011130       0.33444900       0.69663000
   126  O          0.25988870       0.66555100       0.19663000
   127  O          0.24011130       0.16555100       0.69663000
   128  O          0.75988870       0.83444900       0.19663000
   129  S          0.77402600       0.29942400       0.87993160
   130  S          0.22597400       0.70057600       0.37993160
   131  S          0.27402600       0.20057600       0.87993160
   132  S          0.72597400       0.79942400       0.37993160
   133  O          0.81179150       0.24898900       0.79925000
   134  O          0.18820850       0.75101100       0.29925000
   135  O          0.31179150       0.25101100       0.79925000
   136  O          0.68820850       0.74898900       0.29925000
   137  O          0.82839150       0.33729100      -0.01076000
   138  O          0.17160850       0.66270900       0.48924000
   139  O          0.32839150       0.16270900      -0.01076000
   140  O          0.67160850       0.83729100       0.48924000
   141  C          0.67722000       0.28251140       0.00716000
   142  C          0.32278000       0.71748860       0.50716000
   143  C          0.17722000       0.21748860       0.00716000
   144  C          0.82278000       0.78251140       0.50716000
   145  C          0.65613000       0.31365160       0.16676000
   146  C          0.34387000       0.68634840       0.66676000
   147  C          0.15613000       0.18634840       0.16676000
   148  C          0.84387000       0.81365160       0.66676000
   149  H          0.69270000       0.34390000       0.20590000
   150  H          0.30730000       0.65610000       0.70590000
   151  H          0.19270000       0.15610000       0.20590000
   152  H          0.80730000       0.84390000       0.70590000
   153  C          0.58023000       0.29948170       0.26777000
   154  C          0.41977000       0.70051830       0.76777000
   155  C          0.08023000       0.20051830       0.26777000
   156  C          0.91977000       0.79948170       0.76777000
   157  H          0.56610000       0.32060000       0.37570000
   158  H          0.43390000       0.67940000       0.87570000
   159  H          0.06610000       0.17940000       0.37570000
   160  H          0.93390000       0.82060000       0.87570000
   161  C          0.52423000       0.25491180       0.21377000
   162  C          0.47577000       0.74508820       0.71377000
   163  C          0.02423000       0.24508820       0.21377000
   164  C          0.97577000       0.75491180       0.71377000
   165  C          0.54693000       0.22472170       0.05177000
   166  C          0.45307000       0.77527830       0.55177000
   167  C          0.04693000       0.27527830       0.05177000
   168  C          0.95307000       0.72472170       0.55177000
   169  H          0.50980000       0.19490000       0.01150000
   170  H          0.49020000       0.80510000       0.51150000
   171  H          0.00980000       0.30510000       0.01150000
   172  H          0.99020000       0.69490000       0.51150000
   173  C          0.62252000       0.23737150       0.94826000
   174  C          0.37748000       0.76262850       0.44826000
   175  C          0.12252000       0.26262850       0.94826000
   176  C          0.87748000       0.73737150       0.44826000
   177  H          0.63680000       0.21610000       0.84070000
   178  H          0.36320000       0.78390000       0.34070000
   179  H          0.13680000       0.28390000       0.84070000
   180  H          0.86320000       0.71610000       0.34070000
   181  C          0.44143000       0.23962000       0.32628000
   182  C          0.55857000       0.76038000       0.82628000
   183  C          0.94143000       0.26038000       0.32628000
   184  C          0.05857000       0.73962000       0.82628000
   185  H          0.42220000       0.20140000       0.29330000
   186  H          0.57780000       0.79860000       0.79330000
   187  H          0.92220000       0.29860000       0.29330000
   188  H          0.07780000       0.70140000       0.79330000
   189  H          0.39430000       0.26650000       0.29790000
   190  H          0.60570000       0.73350000       0.79790000
   191  H          0.89430000       0.23350000       0.29790000
   192  H          0.10570000       0.76650000       0.79790000
   193  H          0.45500000       0.24110000       0.45900000
   194  H          0.54500000       0.75890000       0.95900000
   195  H          0.95500000       0.25890000       0.45900000
   196  H          0.04500000       0.74110000       0.95900000
   197  C          0.86493000       0.64038160       0.94297000
   198  C          0.13507000       0.35961840       0.44297000
   199  C          0.36493000       0.85961840       0.94297000
   200  C          0.63507000       0.14038160       0.44297000
   201  O          0.87442160       0.60544110       0.79974000
   202  O          0.12557840       0.39455890       0.29974000
   203  O          0.37442160       0.89455890       0.79974000
   204  O          0.62557840       0.10544110       0.29974000
   205  H          0.92480000       0.59120000       0.80220000
   206  H          0.07520000       0.40880000       0.30220000
   207  H          0.42480000       0.90880000       0.80220000
   208  H          0.57520000       0.09120000       0.30220000
   209  O          0.91765180       0.64319110       0.07414000
   210  O          0.08234820       0.35680890       0.57414000
   211  O          0.41765180       0.85680890       0.07414000
   212  O          0.58234820       0.14319110       0.57414000
   213  C          0.78103000       0.67561180       0.92997000
   214  C          0.21897000       0.32438820       0.42997000
   215  C          0.28103000       0.82438820       0.92997000
   216  C          0.71897000       0.17561180       0.42997000
   217  H          0.73320000       0.65620000      -0.00480000
   218  H          0.26680000       0.34380000       0.49520000
   219  H          0.23320000       0.84380000      -0.00480000
   220  H          0.76680000       0.15620000       0.49520000
   221  H          0.76490000       0.68060000       0.79940000
   222  H          0.23510000       0.31940000       0.29940000
   223  H          0.26490000       0.81940000       0.79940000
   224  H          0.73510000       0.18060000       0.29940000
   225  H          0.79100000       0.71260000      -0.01300000
   226  H          0.20900000       0.28740000       0.48700000
   227  H          0.29100000       0.78740000      -0.01300000
   228  H          0.70900000       0.21260000       0.48700000
