data_JISVOW
_symmetry_space_group_name_H-M    'P1'
_symmetry_Int_Tables_number       1
loop_
_symmetry_equiv_pos_site_id
_symmetry_equiv_pos_as_xyz
1 x,y,z
_cell_length_a                   17.62171
_cell_length_b                   11.96294
_cell_length_c                   12.52705
_cell_angle_alpha                90.0
_cell_angle_beta                 109.5324
_cell_angle_gamma                90.0
loop_
_atom_site_label
_atom_site_type_symbol
_atom_site_fract_x
_atom_site_fract_y
_atom_site_fract_z
     1  C          0.19281000       0.06082000       0.92518000
     2  C          0.30719000       0.56082000       0.57482000
     3  C          0.80719000       0.93918000       0.07482000
     4  C          0.69281000       0.43918000       0.42518000
     5  C          0.22141000       0.98188000       0.00972000
     6  C          0.27859000       0.48188000       0.49028000
     7  C          0.77859000       0.01812000      -0.00972000
     8  C          0.72141000       0.51812000       0.50972000
     9  C          0.23092000       0.86968000       0.98548000
    10  C          0.26908000       0.36968000       0.51452000
    11  C          0.76908000       0.13032000       0.01452000
    12  C          0.73092000       0.63032000       0.48548000
    13  C          0.21082000       0.83448000       0.87637000
    14  C          0.28918000       0.33448000       0.62363000
    15  C          0.78918000       0.16552000       0.12363000
    16  C          0.71082000       0.66552000       0.37637000
    17  C          0.17941000       0.90958000       0.78578000
    18  C          0.32059000       0.40958000       0.71422000
    19  C          0.82059000       0.09042000       0.21422000
    20  C          0.67941000       0.59042000       0.28578000
    21  C          0.15392000       0.87057000       0.67157000
    22  C          0.34608000       0.37057000       0.82843000
    23  C          0.84608000       0.12943000       0.32843000
    24  C          0.65392000       0.62943000       0.17157000
    25  C          0.12172000       0.94207000       0.58447000
    26  C          0.37828000       0.44207000       0.91553000
    27  C          0.87828000       0.05793000       0.41553000
    28  C          0.62172000       0.55793000       0.08447000
    29  C          0.11562000       0.05473000       0.60408000
    30  C          0.38438000       0.55473000       0.89592000
    31  C          0.88438000       0.94527000       0.39592000
    32  C          0.61562000       0.44527000       0.10408000
    33  C          0.14161000       0.09912000       0.71268000
    34  C          0.35839000       0.59912000       0.78732000
    35  C          0.85839000       0.90088000       0.28732000
    36  C          0.64161000       0.40088000       0.21268000
    37  C          0.17131000       0.02502000       0.80848000
    38  C          0.32869000       0.52502000       0.69152000
    39  C          0.82869000       0.97498000       0.19152000
    40  C          0.67131000       0.47498000       0.30848000
    41  N          0.18231000       0.17282000       0.94679000
    42  N          0.31769000       0.67282000       0.55321000
    43  N          0.81769000       0.82718000       0.05321000
    44  N          0.68231000       0.32718000       0.44679000
    45  P          0.19579300       0.23153400       0.06428400
    46  P          0.30420700       0.73153400       0.43571600
    47  P          0.80420700       0.76846600       0.93571600
    48  P          0.69579300       0.26846600       0.56428400
    49  C          0.15991000       0.37272000       0.03332000
    50  C          0.34009000       0.87272000       0.46668000
    51  C          0.84009000       0.62728000       0.96668000
    52  C          0.65991000       0.12728000       0.53332000
    53  C          0.17572000       0.42882000       0.94587000
    54  C          0.32428000       0.92882000       0.55413000
    55  C          0.82428000       0.57118000       0.05413000
    56  C          0.67572000       0.07118000       0.44587000
    57  C          0.15273000       0.53943000       0.92377000
    58  C          0.34727000       0.03943000       0.57623000
    59  C          0.84727000       0.46057000       0.07623000
    60  C          0.65273000       0.96057000       0.42377000
    61  C          0.11482000       0.59473000      -0.01164000
    62  C          0.38518000       0.09473000       0.51164000
    63  C          0.88518000       0.40527000       0.01164000
    64  C          0.61482000       0.90527000       0.48836000
    65  C          0.10002000       0.54063000       0.07514000
    66  C          0.39998000       0.04063000       0.42486000
    67  C          0.89998000       0.45937000       0.92486000
    68  C          0.60002000       0.95937000       0.57514000
    69  C          0.12222000       0.42922000       0.09843000
    70  C          0.37778000       0.92922000       0.40157000
    71  C          0.87778000       0.57078000       0.90157000
    72  C          0.62222000       0.07078000       0.59843000
    73  C          0.29991000       0.24832000       0.15332000
    74  C          0.20009000       0.74832000       0.34668000
    75  C          0.70009000       0.75168000       0.84668000
    76  C          0.79991000       0.25168000       0.65332000
    77  C          0.35991000       0.19802000       0.12152000
    78  C          0.14009000       0.69802000       0.37848000
    79  C          0.64009000       0.80198000       0.87848000
    80  C          0.85991000       0.30198000       0.62152000
    81  C          0.44021000       0.21743000       0.18482000
    82  C          0.05979000       0.71743000       0.31518000
    83  C          0.55979000       0.78257000       0.81518000
    84  C          0.94021000       0.28257000       0.68482000
    85  C          0.46031000       0.28533000       0.27842000
    86  C          0.03969000       0.78533000       0.22158000
    87  C          0.53969000       0.71467000       0.72158000
    88  C          0.96031000       0.21467000       0.77842000
    89  C          0.40071000       0.33532000       0.31052000
    90  C          0.09929000       0.83532000       0.18948000
    91  C          0.59929000       0.66468000       0.68948000
    92  C          0.90071000       0.16468000       0.81052000
    93  C          0.32071000       0.31742000       0.24762000
    94  C          0.17929000       0.81742000       0.25238000
    95  C          0.67929000       0.68258000       0.75238000
    96  C          0.82071000       0.18258000       0.74762000
    97  C          0.14191000       0.17252000       0.15122000
    98  C          0.35809000       0.67252000       0.34878000
    99  C          0.85809000       0.82748000       0.84878000
   100  C          0.64191000       0.32748000       0.65122000
   101  C          0.17881000       0.13832000       0.26252000
   102  C          0.32119000       0.63832000       0.23748000
   103  C          0.82119000       0.86168000       0.73748000
   104  C          0.67881000       0.36168000       0.76252000
   105  C          0.13302000       0.09692000       0.32442000
   106  C          0.36698000       0.59692000       0.17558000
   107  C          0.86698000       0.90308000       0.67558000
   108  C          0.63302000       0.40308000       0.82442000
   109  C          0.05042000       0.08953000       0.27602000
   110  C          0.44958000       0.58953000       0.22398000
   111  C          0.94958000       0.91047000       0.72398000
   112  C          0.55042000       0.41047000       0.77602000
   113  C          0.01332000       0.12203000       0.16562000
   114  C          0.48668000       0.62203000       0.33438000
   115  C          0.98668000       0.87797000       0.83438000
   116  C          0.51332000       0.37797000       0.66562000
   117  C          0.05891000       0.16302000       0.10302000
   118  C          0.44109000       0.66302000       0.39698000
   119  C          0.94109000       0.83698000       0.89698000
   120  C          0.55891000       0.33698000       0.60302000
   121  N          0.13891000       0.21262000       0.72498000
   122  N          0.36109000       0.71262000       0.77502000
   123  N          0.86109000       0.78738000       0.27502000
   124  N          0.63891000       0.28738000       0.22498000
   125  H          0.24120000       0.00620000       0.09320000
   126  H          0.25880000       0.50620000       0.40680000
   127  H          0.75880000      -0.00620000       0.90680000
   128  H          0.74120000       0.49380000       0.59320000
   129  H          0.25720000       0.82380000       0.05320000
   130  H          0.24280000       0.32380000       0.44680000
   131  H          0.74280000       0.17620000       0.94680000
   132  H          0.75720000       0.67620000       0.55320000
   133  H          0.21920000       0.75870000       0.85880000
   134  H          0.28080000       0.25870000       0.64120000
   135  H          0.78080000       0.24130000       0.14120000
   136  H          0.71920000       0.74130000       0.35880000
   137  H          0.16220000       0.79170000       0.66670000
   138  H          0.33780000       0.29170000       0.83330000
   139  H          0.83780000       0.20830000       0.33330000
   140  H          0.66220000       0.70830000       0.16670000
   141  H          0.10320000       0.90870000       0.50670000
   142  H          0.39680000       0.40870000      -0.00670000
   143  H          0.89680000       0.09130000       0.49330000
   144  H          0.60320000       0.59130000       0.00670000
   145  H          0.08920000       0.10430000       0.53570000
   146  H          0.41080000       0.60430000       0.96430000
   147  H          0.91080000       0.89570000       0.46430000
   148  H          0.58920000       0.39570000       0.03570000
   149  H          0.19920000       0.38730000       0.89670000
   150  H          0.30080000       0.88730000       0.60330000
   151  H          0.80080000       0.61270000       0.10330000
   152  H          0.69920000       0.11270000       0.39670000
   153  H          0.16430000       0.57240000       0.85560000
   154  H          0.33570000       0.07240000       0.64440000
   155  H          0.83570000       0.42760000       0.14440000
   156  H          0.66430000       0.92760000       0.35560000
   157  H          0.09730000       0.67340000       0.96860000
   158  H          0.40270000       0.17340000       0.53140000
   159  H          0.90270000       0.32660000       0.03140000
   160  H          0.59730000       0.82660000       0.46860000
   161  H          0.07330000       0.57740000       0.12430000
   162  H          0.42670000       0.07740000       0.37570000
   163  H          0.92670000       0.42260000       0.87570000
   164  H          0.57330000       0.92260000       0.62430000
   165  H          0.11220000       0.39030000       0.15730000
   166  H          0.38780000       0.89030000       0.34270000
   167  H          0.88780000       0.60970000       0.84270000
   168  H          0.61220000       0.10970000       0.65730000
   169  H          0.34420000       0.15320000       0.05330000
   170  H          0.15580000       0.65320000       0.44670000
   171  H          0.65580000       0.84680000       0.94670000
   172  H          0.84420000       0.34680000       0.55330000
   173  H          0.48120000       0.18430000       0.15730000
   174  H          0.01880000       0.68430000       0.34270000
   175  H          0.51880000       0.81570000       0.84270000
   176  H          0.98120000       0.31570000       0.65730000
   177  H          0.51520000       0.30530000       0.32330000
   178  H          0.98480000       0.80530000       0.17670000
   179  H          0.48480000       0.69470000       0.67670000
   180  H          0.01520000       0.19470000       0.82330000
   181  H          0.41320000       0.39020000       0.37720000
   182  H          0.08680000       0.89020000       0.12280000
   183  H          0.58680000       0.60980000       0.62280000
   184  H          0.91320000       0.10980000       0.87720000
   185  H          0.27620000       0.35420000       0.27020000
   186  H          0.22380000       0.85420000       0.22980000
   187  H          0.72380000       0.64580000       0.72980000
   188  H          0.77620000       0.14580000       0.77020000
   189  H          0.23820000       0.14720000       0.29820000
   190  H          0.26180000       0.64720000       0.20180000
   191  H          0.76180000       0.85280000       0.70180000
   192  H          0.73820000       0.35280000       0.79820000
   193  H          0.16120000       0.07330000       0.40730000
   194  H          0.33880000       0.57330000       0.09270000
   195  H          0.83880000       0.92670000       0.59270000
   196  H          0.66120000       0.42670000       0.90730000
   197  H          0.01920000       0.06630000       0.32130000
   198  H          0.48080000       0.56630000       0.17870000
   199  H          0.98080000       0.93370000       0.67870000
   200  H          0.51920000       0.43370000       0.82130000
   201  H          0.95280000       0.11630000       0.13130000
   202  H          0.54720000       0.61630000       0.36870000
   203  H          0.04720000       0.88370000       0.86870000
   204  H          0.45280000       0.38370000       0.63130000
   205  H          0.03220000       0.19020000       0.02530000
   206  H          0.46780000       0.69020000       0.47470000
   207  H          0.96780000       0.80980000       0.97470000
   208  H          0.53220000       0.30980000       0.52530000
   209  H          0.15420000       0.24020000       0.79670000
   210  H          0.34580000       0.74020000       0.70330000
   211  H          0.84580000       0.75980000       0.20330000
   212  H          0.65420000       0.25980000       0.29670000
   213  H          0.12120000       0.25530000       0.66170000
   214  H          0.37880000       0.75530000       0.83830000
   215  H          0.87880000       0.74470000       0.33830000
   216  H          0.62120000       0.24470000       0.16170000
   217  C          0.55174000       0.07198000       0.97672000
   218  C          0.94826000       0.57198000       0.52328000
   219  C          0.44826000       0.92802000       0.02328000
   220  C          0.05174000       0.42802000       0.47672000
   221  C          0.58023000       0.00418000       0.06217000
   222  C          0.91977000       0.50418000       0.43783000
   223  C          0.41977000      -0.00418000       0.93783000
   224  C          0.08023000       0.49582000       0.56217000
   225  C          0.47185000       0.07017000       0.91223000
   226  C          0.02815000       0.57017000       0.58777000
   227  C          0.52815000       0.92983000       0.08777000
   228  C          0.97185000       0.42983000       0.41223000
   229  H          0.58940000       0.12460000       0.95350000
   230  H          0.91060000       0.62460000       0.54650000
   231  H          0.41060000       0.87540000       0.04650000
   232  H          0.08940000       0.37540000       0.45350000
   233  H          0.64040000      -0.00250000       0.11650000
   234  H          0.85960000       0.49750000       0.38350000
   235  H          0.35960000       0.00250000       0.88350000
   236  H          0.14040000       0.50250000       0.61650000
   237  H          0.46130000       0.11050000       0.84250000
   238  H          0.03870000       0.61050000       0.65750000
   239  H          0.53870000       0.88950000       0.15750000
   240  H          0.96130000       0.38950000       0.34250000
   241  H          0.53930000       0.88950000       0.15750000
   242  H          0.96070000       0.38950000       0.34250000
   243  H          0.46070000       0.11050000       0.84250000
   244  H          0.03930000       0.61050000       0.65750000
   245  H          0.36040000       0.00250000       0.88350000
   246  H          0.13960000       0.50250000       0.61650000
   247  H          0.63960000      -0.00250000       0.11650000
   248  H          0.86040000       0.49750000       0.38350000
   249  H          0.41140000       0.87540000       0.04650000
   250  H          0.08860000       0.37540000       0.45350000
   251  H          0.58860000       0.12460000       0.95350000
   252  H          0.91140000       0.62460000       0.54650000
