data_JIVDEY
_symmetry_space_group_name_H-M    'P1'
_symmetry_Int_Tables_number       1
loop_
_symmetry_equiv_pos_site_id
_symmetry_equiv_pos_as_xyz
1 x,y,z
_cell_length_a                   11.60783
_cell_length_b                   14.26974
_cell_length_c                   14.66974
_cell_angle_alpha                87.2532
_cell_angle_beta                 85.7872
_cell_angle_gamma                88.37001
loop_
_atom_site_label
_atom_site_type_symbol
_atom_site_fract_x
_atom_site_fract_y
_atom_site_fract_z
     1  Br         0.36855500       0.04698400       0.83273300
     2  Br         0.63144500       0.95301600       0.16726700
     3  O          0.71132000       0.30832000       0.52723170
     4  O          0.28868000       0.69168000       0.47276830
     5  O          0.78052000       0.45392000       0.52336190
     6  O          0.21948000       0.54608000       0.47663810
     7  O          0.62002000       0.21282000       0.28201180
     8  O          0.37998000       0.78718000       0.71798820
     9  H          0.59770000       0.17540000       0.32530000
    10  H          0.40230000       0.82460000       0.67470000
    11  O          0.86643000       0.10482000       0.46223190
    12  O          0.13357000       0.89518000       0.53776810
    13  O          0.06133000       0.17442000       0.55282000
    14  O          0.93867000       0.82558000       0.44718000
    15  O          0.00803000       0.37262000       0.49665190
    16  O         -0.00803000       0.62738000       0.50334810
    17  O          0.78862000       0.51675190       0.32425180
    18  O          0.21138000       0.48324810       0.67574820
    19  O          0.66402000       0.49752000       0.32422000
    20  O          0.33598000       0.50248000       0.67578000
    21  N          0.62753000       0.17423000       0.47512000
    22  N          0.37247000       0.82577000       0.52488000
    23  C          0.69324000       0.24363000       0.46353000
    24  C          0.30676000       0.75637000       0.53647000
    25  C          0.77004000       0.38353000       0.48383000
    26  C          0.22996000       0.61647000       0.51617000
    27  C          0.80073000       0.35843000       0.38863000
    28  C          0.19927000       0.64157000       0.61137000
    29  C          0.75423000       0.27563000       0.37642000
    30  C          0.24577000       0.72437000       0.62358000
    31  C          0.73883000       0.23043000       0.28723000
    32  C          0.26117000       0.76957000       0.71277000
    33  C          0.81113000       0.14303000       0.25562000
    34  C          0.18887000       0.85697000       0.74438000
    35  C          0.87973000       0.07703000       0.29903000
    36  C          0.12027000       0.92297000       0.70097000
    37  C          0.91864000       0.07663000       0.39333000
    38  C          0.08136000       0.92337000       0.60667000
    39  C          0.04444000       0.04443000       0.38433000
    40  C          0.95556000       0.95557000       0.61567000
    41  C          0.13444000       0.08453000       0.42333000
    42  C          0.86556000       0.91547000       0.57667000
    43  C          0.12474000       0.16573000       0.48613000
    44  C          0.87526000       0.83427000       0.51387000
    45  C          0.21244000       0.23373000       0.44263000
    46  C          0.78756000       0.76627000       0.55737000
    47  C          0.19303000       0.32823000       0.42043000
    48  C          0.80697000       0.67177000       0.57957000
    49  C          0.07884000       0.38023000       0.43373000
    50  C          0.92116000       0.61977000       0.56627000
    51  C          0.06754000       0.43763000       0.34443000
    52  C          0.93246000       0.56237000       0.65557000
    53  C          0.97293000       0.45173000       0.29403000
    54  C          0.02707000       0.54827000       0.70597000
    55  C          0.84463000       0.42583000       0.31233000
    56  C          0.15537000       0.57417000       0.68767000
    57  C          0.82283000       0.38643000       0.22083000
    58  C          0.17717000       0.61357000       0.77917000
    59  C          0.77603000       0.30173000       0.20953000
    60  C          0.22397000       0.69827000       0.79047000
    61  C          0.81023000       0.25183000       0.12923000
    62  C          0.18977000       0.74817000       0.87077000
    63  C          0.82773000       0.15513000       0.15583000
    64  C          0.17227000       0.84487000       0.84417000
    65  C          0.90793000       0.10093000       0.10473000
    66  C          0.09207000       0.89907000       0.89527000
    67  C          0.97754000       0.03223000       0.15113000
    68  C          0.02246000       0.96777000       0.84887000
    69  C          0.96334000       0.02333000       0.24523000
    70  C          0.03666000       0.97667000       0.75477000
    71  C          0.06474000       0.00483000       0.29683000
    72  C          0.93526000      -0.00483000       0.70317000
    73  C          0.17434000       0.00033000       0.25193000
    74  C          0.82566000      -0.00033000       0.74807000
    75  C          0.26614000       0.04643000       0.29063000
    76  C          0.73386000       0.95357000       0.70937000
    77  C          0.24434000       0.08983000       0.37263000
    78  C          0.75566000       0.91017000       0.62737000
    79  C          0.29274000       0.18093000       0.38353000
    80  C          0.70726000       0.81907000       0.61647000
    81  C          0.35973000       0.22343000       0.31243000
    82  C          0.64027000       0.77657000       0.68757000
    83  C          0.34333000       0.32153000       0.29193000
    84  C          0.65667000       0.67847000       0.70807000
    85  C          0.25713000       0.36993000       0.34373000
    86  C          0.74287000       0.63007000       0.65627000
    87  C          0.18273000       0.43823000       0.29743000
    88  C          0.81727000       0.56177000       0.70257000
    89  C          0.20134000       0.45693000       0.20463000
    90  C          0.79866000       0.54307000       0.79537000
    91  C          0.10304000       0.47203000       0.15123000
    92  C          0.89696000       0.52797000       0.84877000
    93  C         -0.00746000       0.46733000       0.19553000
    94  C          0.00746000       0.53267000       0.80447000
    95  C          0.90204000       0.42543000       0.15063000
    96  C          0.09796000       0.57457000       0.84937000
    97  C          0.92574000       0.38283000       0.06853000
    98  C          0.07426000       0.61717000       0.93147000
    99  C          0.87813000       0.29273000       0.05712000
   100  C          0.12187000       0.70727000       0.94288000
   101  C          0.96464000       0.23793000       0.00592000
   102  C          0.03536000       0.76207000      -0.00592000
   103  C          0.97784000       0.14293000       0.02783000
   104  C          0.02216000       0.85707000       0.97217000
   105  C          0.09254000       0.09923000       0.02853000
   106  C          0.90746000       0.90077000       0.97147000
   107  C          0.09174000       0.02923000       0.10373000
   108  C          0.90826000       0.97077000       0.89627000
   109  C          0.18804000       0.01493000       0.15253000
   110  C          0.81196000       0.98507000       0.84747000
   111  C          0.28954000       0.07073000       0.13053000
   112  C          0.71046000       0.92927000       0.86947000
   113  C          0.33814000       0.09083000       0.21523000
   114  C          0.66186000       0.90917000       0.78477000
   115  C          0.38333000       0.17803000       0.22743000
   116  C          0.61667000       0.82197000       0.77257000
   117  C          0.38243000       0.24993000       0.15353000
   118  C          0.61757000       0.75007000       0.84647000
   119  C          0.35823000       0.33833000       0.19393000
   120  C          0.64177000       0.66167000       0.80607000
   121  C          0.28974000       0.40573000       0.15103000
   122  C          0.71026000       0.59427000       0.84897000
   123  C          0.24394000       0.38643000       0.06573000
   124  C          0.75606000       0.61357000       0.93427000
   125  C          0.12844000       0.42863000       0.06513000
   126  C          0.87156000       0.57137000       0.93487000
   127  C          0.04224000       0.38393000       0.02493000
   128  C          0.95776000       0.61607000       0.97507000
   129  C          0.06614000       0.29353000       0.98518000
   130  C          0.93386000       0.70647000       0.01482000
   131  C          0.17554000       0.25363000       0.98548000
   132  C          0.82446000       0.74637000       0.01452000
   133  C          0.18974000       0.15303000       0.00743000
   134  C          0.81026000       0.84697000      -0.00743000
   135  C          0.28914000       0.13893000       0.05993000
   136  C          0.71086000       0.86107000       0.94007000
   137  C          0.33734000       0.22973000       0.07253000
   138  C          0.66266000       0.77027000       0.92747000
   139  C          0.26634000       0.29993000       0.02623000
   140  C          0.73366000       0.70007000       0.97377000
   141  C          0.57143000       0.14723000       0.56063000
   142  C          0.42857000       0.85277000       0.43937000
   143  C          0.46964000       0.09783000       0.55953000
   144  C          0.53036000       0.90217000       0.44047000
   145  H          0.44260000       0.08450000       0.50200000
   146  H          0.55740000       0.91550000       0.49800000
   147  C          0.40614000       0.06733000       0.63853000
   148  C          0.59386000       0.93267000       0.36147000
   149  H          0.33620000       0.03470000       0.63610000
   150  H          0.66380000       0.96530000       0.36390000
   151  C          0.44914000       0.08643000       0.72113000
   152  C          0.55086000       0.91357000       0.27887000
   153  C          0.55344000       0.13293000       0.72493000
   154  C          0.44656000       0.86707000       0.27507000
   155  H          0.58230000       0.14390000       0.78220000
   156  H          0.41770000       0.85610000       0.21780000
   157  C          0.61354000       0.16213000       0.64513000
   158  C          0.38646000       0.83787000       0.35487000
   159  H          0.68460000       0.19290000       0.64750000
   160  H          0.31540000       0.80710000       0.35250000
   161  C          0.60534000       0.58663000       0.30613000
   162  C          0.39466000       0.41337000       0.69387000
   163  C          0.48024000       0.55754000       0.31114000
   164  C          0.51976000       0.44246000       0.68886000
   165  H          0.46930000       0.51530000       0.26190000
   166  H          0.53070000       0.48470000       0.73810000
   167  H          0.42990000       0.61340000       0.30420000
   168  H          0.57010000       0.38660000       0.69580000
   169  H          0.46050000       0.52520000       0.37040000
   170  H          0.53950000       0.47480000       0.62960000
   171  C          0.62624000       0.65243000       0.38034000
   172  C          0.37376000       0.34757000       0.61966000
   173  H          0.70730000       0.67050000       0.37480000
   174  H          0.29270000       0.32950000       0.62520000
   175  H          0.60840000       0.62090000       0.44030000
   176  H          0.39160000       0.37910000       0.55970000
   177  H          0.57640000       0.70870000       0.37400000
   178  H          0.42360000       0.29130000       0.62600000
   179  C          0.64354000       0.62664000       0.21133000
   180  C          0.35646000       0.37336000       0.78867000
   181  H          0.62770000       0.58180000       0.16560000
   182  H          0.37230000       0.41820000       0.83440000
   183  H          0.72650000       0.63830000       0.20810000
   184  H          0.27350000       0.36170000       0.79190000
   185  H          0.60100000       0.68570000       0.19920000
   186  H          0.39900000       0.31430000       0.80080000
   187  C          0.39455000       0.72705000       0.02154000
   188  C          0.60545000       0.27295000       0.97846000
   189  S          0.38370130       0.83428860       0.02084100
   190  S          0.61629870       0.16571140       0.97915900
   191  S          0.40540160       0.61587830       0.01834160
   192  S          0.59459840       0.38412170       0.98165840
   193  C          0.91084000       0.28724000       0.70153000
   194  C          0.08916000       0.71276000       0.29847000
   195  H          0.90870000       0.23450000       0.66020000
   196  H          0.09130000       0.76550000       0.33980000
   197  H          0.88280000       0.34450000       0.66860000
   198  H          0.11720000       0.65550000       0.33140000
   199  C          0.03304000       0.30033000       0.72353000
   200  C          0.96696000       0.69967000       0.27647000
   201  H          0.03400000       0.34890000       0.76940000
   202  H          0.96600000       0.65110000       0.23060000
   203  H          0.07810000       0.32350000       0.66750000
   204  H          0.92190000       0.67650000       0.33250000
   205  Cl         0.81764130       0.26389120       0.79958900
   206  Cl         0.18235870       0.73610880       0.20041100
   207  Cl         0.10077120       0.19630900       0.76656800
   208  Cl         0.89922880       0.80369100       0.23343200
