data_JIXRUG
_symmetry_space_group_name_H-M    'P1'
_symmetry_Int_Tables_number       1
loop_
_symmetry_equiv_pos_site_id
_symmetry_equiv_pos_as_xyz
1 x,y,z
_cell_length_a                   12.01175
_cell_length_b                   12.64745
_cell_length_c                   18.22607
_cell_angle_alpha                108.84101
_cell_angle_beta                 108.50401
_cell_angle_gamma                91.1392
loop_
_atom_site_label
_atom_site_type_symbol
_atom_site_fract_x
_atom_site_fract_y
_atom_site_fract_z
     1  S          0.09315800       0.64763800       0.10170600
     2  S          0.90684200       0.35236200       0.89829400
     3  O          0.43362000       0.88032000      -0.00561160
     4  O          0.56638000       0.11968000       0.00561160
     5  O          0.39252000       0.88092000       0.38920160
     6  O          0.60748000       0.11908000       0.61079840
     7  N          0.90092000       0.62513000       0.97374830
     8  N          0.09908000       0.37487000       0.02625170
     9  H          0.92960000       0.56900000       0.94540000
    10  H          0.07040000       0.43100000       0.05460000
    11  N         -0.01488000       0.84932000       0.16577170
    12  N          0.01488000       0.15068000       0.83422830
    13  N          0.78872000       0.65042000       0.93756820
    14  N          0.21128000       0.34958000       0.06243180
    15  N          0.92062000       0.77942000       0.08605170
    16  N          0.07938000       0.22058000       0.91394830
    17  H          0.85250000       0.79520000       0.05830000
    18  H          0.14750000       0.20480000       0.94170000
    19  N          0.06273000       0.17323000       0.38722180
    20  N          0.93727000       0.82677000       0.61277820
    21  H          0.06140000       0.23970000       0.42220000
    22  H          0.93860000       0.76030000       0.57780000
    23  N          0.44933000       0.56773000       0.70885820
    24  N          0.55067000       0.43227000       0.29114180
    25  H          0.39800000       0.54050000       0.65830000
    26  H          0.60200000       0.45950000       0.34170000
    27  C          0.61503000       0.59623000       0.81808000
    28  C          0.38497000       0.40377000       0.18192000
    29  C          0.00603000       0.01513000       0.27642000
    30  C         -0.00603000       0.98487000       0.72358000
    31  C          0.53543000       0.66873000       0.84448000
    32  C          0.46457000       0.33127000       0.15552000
    33  C          0.53933000       0.74793000       0.92058000
    34  C          0.46067000       0.25207000       0.07942000
    35  H          0.60710000       0.76230000       0.96870000
    36  H          0.39290000       0.23770000       0.03130000
    37  C          0.93993000       0.93643000       0.19562000
    38  C          0.06007000       0.06357000       0.80438000
    39  H          0.86430000       0.94900000       0.16510000
    40  H          0.13570000       0.05100000       0.83490000
    41  C          0.96503000       0.68743000       0.05272000
    42  C          0.03497000       0.31257000       0.94728000
    43  C          0.15483000       0.11073000       0.39652000
    44  C          0.84517000       0.88927000       0.60348000
    45  C          0.12353000       0.01023000       0.32802000
    46  C          0.87647000      -0.01023000       0.67198000
    47  C          0.44293000       0.80383000       0.92378000
    48  C          0.55707000       0.19617000       0.07622000
    49  C          0.97393000       0.11643000       0.31562000
    50  C          0.02607000       0.88357000       0.68438000
    51  H          0.90060000       0.14240000       0.29550000
    52  H          0.09940000       0.85760000       0.70450000
    53  C          0.55783000       0.53583000       0.73518000
    54  C          0.44217000       0.46417000       0.26482000
    55  H          0.58980000       0.47990000       0.70160000
    56  H          0.41020000       0.52010000       0.29840000
    57  C          0.43283000       0.64983000       0.77428000
    58  C          0.56717000       0.35017000       0.22572000
    59  C          0.73343000       0.58423000       0.86318000
    60  C          0.26657000       0.41577000       0.13682000
    61  H          0.77170000       0.52580000       0.83740000
    62  H          0.22830000       0.47420000       0.16260000
    63  C          0.20173000       0.93063000       0.32272000
    64  C          0.79827000       0.06937000       0.67728000
    65  H          0.18170000       0.86230000       0.27670000
    66  H          0.81830000       0.13770000       0.72330000
    67  C          0.34273000       0.78613000       0.85248000
    68  C          0.65727000       0.21387000       0.14752000
    69  H          0.27830000       0.82730000       0.85620000
    70  H          0.72170000       0.17270000       0.14380000
    71  C          0.30833000       0.95353000       0.38552000
    72  C          0.69167000       0.04647000       0.61448000
    73  C          0.34013000       0.05613000       0.45382000
    74  C          0.65987000       0.94387000       0.54618000
    75  H          0.41520000       0.07020000       0.49600000
    76  H          0.58480000       0.92980000       0.50400000
    77  C          0.26463000       0.13443000       0.45952000
    78  C          0.73537000       0.86557000       0.54048000
    79  H          0.28590000       0.20330000       0.50500000
    80  H          0.71410000       0.79670000       0.49500000
    81  C          0.33803000       0.70983000       0.77808000
    82  C          0.66197000       0.29017000       0.22192000
    83  H          0.27100000       0.69810000       0.73000000
    84  H          0.72900000       0.30190000       0.27000000
    85  C          0.36204000       0.77374000       0.32543000
    86  C          0.63796000       0.22626000       0.67457000
    87  H          0.29070000       0.73420000       0.32510000
    88  H          0.70930000       0.26580000       0.67490000
    89  H          0.42750000       0.72920000       0.33500000
    90  H          0.57250000       0.27080000       0.66500000
    91  H          0.34660000       0.78370000       0.27210000
    92  H          0.65340000       0.21630000       0.72790000
    93  C          0.53454000       0.90794000       0.06762000
    94  C          0.46546000       0.09206000       0.93238000
    95  H          0.55070000       0.84020000       0.08210000
    96  H          0.44930000       0.15980000       0.91790000
    97  H          0.51900000       0.96560000       0.11270000
    98  H          0.48100000       0.03440000       0.88730000
    99  H          0.60330000       0.93670000       0.05830000
   100  H          0.39670000       0.06330000       0.94170000
   101  P          0.17467800       0.47582800       0.51547600
   102  P          0.82532200       0.52417200       0.48452400
   103  O          0.29272000       0.45192000       0.55986150
   104  O          0.70728000       0.54808000       0.44013850
   105  O          0.17642000       0.49512000       0.43418150
   106  O          0.82358000       0.50488000       0.56581850
   107  O          0.14962000       0.59062000       0.57121150
   108  O          0.85038000       0.40938000       0.42878850
   109  O          0.07112000       0.38672000       0.48928150
   110  O          0.92888000       0.61328000       0.51071850
   111  O          0.79822000       0.93258000       0.02056170
   112  O          0.20178000       0.06742000       0.97943830
   113  N          0.79243000       0.02773000       0.93402000
   114  N          0.20757000       0.97227000       0.06598000
   115  C          0.76473000       0.94156000       0.95203000
   116  C          0.23527000       0.05844000       0.04797000
   117  H          0.71340000       0.87950000       0.90780000
   118  H          0.28660000       0.12050000       0.09220000
   119  C          0.74784000       0.03365000       0.85213000
   120  C          0.25216000       0.96635000       0.14787000
   121  H          0.70100000       0.96140000       0.81330000
   122  H          0.29900000       0.03860000       0.18670000
   123  H          0.81450000       0.04950000       0.83550000
   124  H          0.18550000       0.95050000       0.16450000
   125  H          0.69780000       0.09380000       0.85200000
   126  H          0.30220000       0.90620000       0.14800000
   127  C          0.86755000       0.12645000      -0.00067000
   128  C          0.13245000       0.87355000       0.00067000
   129  H          0.88440000       0.11570000       0.05250000
   130  H          0.11560000       0.88430000       0.94750000
   131  H          0.82680000       0.19290000      -0.00010000
   132  H          0.17320000       0.80710000       0.00010000
   133  H          0.94190000       0.13720000       0.98960000
   134  H          0.05810000       0.86280000       0.01040000
   135  O          0.37613000       0.59963000       0.43703180
   136  O          0.62387000       0.40037000       0.56296820
   137  N          0.49323000       0.70513000       0.56732000
   138  N          0.50677000       0.29487000       0.43268000
   139  C          0.47294000       0.62864000       0.49383000
   140  C          0.52706000       0.37136000       0.50617000
   141  H          0.53790000       0.59290000       0.48350000
   142  H          0.46210000       0.40710000       0.51650000
   143  C          0.60904000       0.72884000       0.63223000
   144  C          0.39096000       0.27116000       0.36777000
   145  H          0.66360000       0.68200000       0.61090000
   146  H          0.33640000       0.31800000       0.38910000
   147  H          0.60090000       0.71170000       0.67920000
   148  H          0.39910000       0.28830000       0.32080000
   149  H          0.64020000       0.80860000       0.65010000
   150  H          0.35980000       0.19140000       0.34990000
   151  C          0.40154000       0.76854000       0.58733000
   152  C          0.59846000       0.23146000       0.41267000
   153  H          0.32960000       0.74770000       0.53830000
   154  H          0.67040000       0.25230000       0.46170000
   155  H          0.42850000       0.84940000       0.60540000
   156  H          0.57150000       0.15060000       0.39460000
   157  H          0.38410000       0.75150000       0.63160000
   158  H          0.61590000       0.24850000       0.36840000
   159  N          0.88633000       0.60663000       0.25813000
   160  N          0.11367000       0.39337000       0.74187000
   161  C          0.01234000       0.32574000       0.24543000
   162  C         -0.01234000       0.67426000       0.75457000
   163  H          0.93350000       0.28020000       0.21260000
   164  H          0.06650000       0.71980000       0.78740000
   165  H          0.02930000       0.33210000       0.30360000
   166  H          0.97070000       0.66790000       0.69640000
   167  C          0.00854000       0.44224000       0.23943000
   168  C         -0.00854000       0.55776000       0.76057000
   169  H         -0.01290000       0.43660000       0.18110000
   170  H          0.01290000       0.56340000       0.81890000
   171  H          0.08750000       0.48780000       0.27070000
   172  H          0.91250000       0.51220000       0.72930000
   173  C          0.91734000       0.49864000       0.27473000
   174  C          0.08266000       0.50136000       0.72527000
   175  H          0.84380000       0.44430000       0.25160000
   176  H          0.15620000       0.55570000       0.74840000
   177  H          0.94740000       0.51590000       0.33520000
   178  H          0.05260000       0.48410000       0.66480000
   179  C          0.10474000       0.26524000       0.21473000
   180  C          0.89526000       0.73476000       0.78527000
   181  H          0.08640000       0.25560000       0.15630000
   182  H          0.91360000       0.74440000       0.84370000
   183  H          0.10480000       0.19110000       0.22090000
   184  H          0.89520000       0.80890000       0.77910000
   185  H          0.18300000       0.30970000       0.24690000
   186  H          0.81700000       0.69030000       0.75310000
   187  C          0.73484000       0.49234000       0.11503000
   188  C          0.26516000       0.50766000       0.88497000
   189  H          0.75780000       0.41940000       0.11970000
   190  H          0.24220000       0.58060000       0.88030000
   191  H          0.66730000       0.50890000       0.13500000
   192  H          0.33270000       0.49110000       0.86500000
   193  C          0.83894000       0.58574000       0.16633000
   194  C          0.16106000       0.41426000       0.83367000
   195  H          0.90440000       0.56740000       0.14440000
   196  H          0.09560000       0.43260000       0.85560000
   197  H          0.81440000       0.65670000       0.15850000
   198  H          0.18560000       0.34330000       0.84150000
   199  C          0.79444000       0.64854000       0.29644000
   200  C          0.20556000       0.35146000       0.70356000
   201  H          0.72920000       0.58610000       0.27690000
   202  H          0.27080000       0.41390000       0.72310000
   203  H          0.83050000       0.66970000       0.35700000
   204  H          0.16950000       0.33030000       0.64300000
   205  C         -0.00116000       0.69214000       0.29353000
   206  C          0.00116000       0.30786000       0.70647000
   207  H          0.05530000       0.65860000       0.26610000
   208  H          0.94470000       0.34140000       0.73390000
   209  H          0.97750000       0.75930000       0.27830000
   210  H          0.02250000       0.24070000       0.72170000
   211  C          0.69954000       0.48584000       0.02623000
   212  C          0.30046000       0.51416000       0.97377000
   213  H          0.77010000       0.47670000       0.00900000
   214  H          0.22990000       0.52330000       0.99100000
   215  H          0.67240000       0.55780000       0.02230000
   216  H          0.32760000       0.44220000       0.97770000
   217  C          0.06224000       0.73124000       0.38563000
   218  C          0.93776000       0.26876000       0.61437000
   219  H          0.04640000       0.67020000       0.40540000
   220  H          0.95360000       0.32980000       0.59460000
   221  H          0.14850000       0.74230000       0.39620000
   222  H          0.85150000       0.25770000       0.60380000
   223  C          0.60174000       0.38925000       0.96687000
   224  C          0.39826000       0.61075000       0.03313000
   225  H          0.62970000       0.31710000       0.96770000
   226  H          0.37030000       0.68290000       0.03230000
   227  H          0.58080000       0.39140000       0.91100000
   228  H          0.41920000       0.60860000       0.08900000
   229  H          0.53180000       0.39680000       0.98390000
   230  H          0.46820000       0.60320000       0.01610000
   231  C          0.03075000       0.83595000       0.43523000
   232  C          0.96925000       0.16405000       0.56477000
   233  H          0.95460000       0.81840000       0.44200000
   234  H          0.04540000       0.18160000       0.55800000
   235  H          0.01900000       0.88970000       0.40510000
   236  H          0.98100000       0.11030000       0.59490000
   237  C          0.12755000       0.89324000       0.52273000
   238  C          0.87245000       0.10676000       0.47727000
   239  H          0.14430000       0.83850000       0.55110000
   240  H          0.85570000       0.16150000       0.44890000
   241  H          0.09860000       0.95750000       0.55500000
   242  H          0.90140000       0.04250000       0.44500000
   243  H          0.20020000       0.91950000       0.51650000
   244  H          0.79980000       0.08050000       0.48350000
   245  C          0.74325000       0.74806000       0.27736000
   246  C          0.25675000       0.25194000       0.72264000
   247  H          0.76760000       0.77890000       0.24290000
   248  H          0.23240000       0.22110000       0.75710000
   249  C          0.60215000       0.88805000       0.28764000
   250  C          0.39785000       0.11195000       0.71236000
   251  H          0.66090000       0.94430000       0.28920000
   252  H          0.33910000       0.05570000       0.71080000
   253  H          0.56350000       0.92320000       0.32770000
   254  H          0.43650000       0.07680000       0.67230000
   255  H          0.54250000       0.85810000       0.23210000
   256  H          0.45750000       0.14190000       0.76790000
   257  C          0.66467000       0.79026000       0.30947000
   258  C          0.33533000       0.20974000       0.69053000
   259  H          0.64510000       0.76110000       0.34640000
   260  H          0.35490000       0.23890000       0.65360000
