data_JIYVOF02
_symmetry_space_group_name_H-M    'P1'
_symmetry_Int_Tables_number       1
loop_
_symmetry_equiv_pos_site_id
_symmetry_equiv_pos_as_xyz
1 x,y,z
_cell_length_a                   17.48611
_cell_length_b                   7.69024
_cell_length_c                   16.39729
_cell_angle_alpha                90.0
_cell_angle_beta                 70.99501
_cell_angle_gamma                90.0
loop_
_atom_site_label
_atom_site_type_symbol
_atom_site_fract_x
_atom_site_fract_y
_atom_site_fract_z
     1  Cl         0.64917200      -0.01660600       0.37289200
     2  Cl         0.85082800       0.48339400       0.12710800
     3  Cl         0.35082800       0.01660600       0.62710800
     4  Cl         0.14917200       0.51660600       0.87289200
     5  Cl         0.81890200       0.16101400       0.30322200
     6  Cl         0.68109800       0.66101400       0.19677800
     7  Cl         0.18109800       0.83898600       0.69677800
     8  Cl         0.31890200       0.33898600       0.80322200
     9  Cl         0.92964200       0.17163400       0.41740200
    10  Cl         0.57035800       0.67163400       0.08259800
    11  Cl         0.07035800       0.82836600       0.58259800
    12  Cl         0.42964200       0.32836600       0.91740200
    13  Cl         0.86942200       0.00951400       0.60268200
    14  Cl         0.63057800       0.50951400       0.89731800
    15  Cl         0.13057800      -0.00951400       0.39731800
    16  Cl         0.36942200       0.49048600       0.10268200
    17  N          0.68323700       0.79467160       0.72154700
    18  N          0.81676300       0.29467160       0.77845300
    19  N          0.31676300       0.20532840       0.27845300
    20  N          0.18323700       0.70532840       0.22154700
    21  N          0.54415700       0.77671150       0.57610700
    22  N          0.95584300       0.27671150       0.92389300
    23  N          0.45584300       0.22328850       0.42389300
    24  N          0.04415700       0.72328850       0.07610700
    25  C          0.73394700       0.92682150       0.56932700
    26  C          0.76605300       0.42682150       0.93067300
    27  C          0.26605300       0.07317850       0.43067300
    28  C          0.23394700       0.57317850       0.06932700
    29  C          0.68408700       0.92121150       0.51774700
    30  C          0.81591300       0.42121150       0.98225300
    31  C          0.31591300       0.07878850       0.48225300
    32  C          0.18408700       0.57878850       0.01774700
    33  C          0.71082700      -0.00696850       0.43515800
    34  C          0.78917300       0.49303150       0.06484200
    35  C          0.28917300       0.00696850       0.56484200
    36  C          0.21082700       0.50696850       0.93515800
    37  C          0.78667700       0.07130150       0.40434700
    38  C          0.71332300       0.57130150       0.09565300
    39  C          0.21332300       0.92869850       0.59565300
    40  C          0.28667700       0.42869850       0.90434700
    41  C          0.83646700       0.07652150       0.45568800
    42  C          0.66353300       0.57652150       0.04431200
    43  C          0.16353300       0.92347850       0.54431200
    44  C          0.33646700       0.42347850       0.95568800
    45  C          0.81006700       0.00392150       0.53823800
    46  C          0.68993300       0.50392150       0.96176200
    47  C          0.18993300      -0.00392150       0.46176200
    48  C          0.31006700       0.49607850       0.03823800
    49  C          0.70603700       0.85271160       0.65461800
    50  C          0.79396300       0.35271160       0.84538200
    51  C          0.29396300       0.14728840       0.34538200
    52  C          0.20603700       0.64728840       0.15461800
    53  C          0.60550700       0.84082160       0.55015800
    54  C          0.89449300       0.34082160       0.94984200
    55  C          0.39449300       0.15917840       0.44984200
    56  C          0.10550700       0.65917840       0.05015800
    57  C          0.69161700       0.48794160       0.42616800
    58  C          0.80838300      -0.01205840       0.07383200
    59  C          0.30838300       0.51205840       0.57383200
    60  C          0.19161700       0.01205840       0.92616800
    61  H          0.69700000       0.52640000       0.36950000
    62  H          0.80300000       0.02640000       0.13050000
    63  H          0.30300000       0.47360000       0.63050000
    64  H          0.19700000       0.97360000       0.86950000
    65  C          0.62233800       0.40639160       0.47373800
    66  C          0.87766200       0.90639160       0.02626200
    67  C          0.37766200       0.59360840       0.52626200
    68  C          0.12233800       0.09360840       0.97373800
    69  H          0.58020000       0.38900000       0.44980000
    70  H          0.91980000       0.88900000       0.05020000
    71  H          0.41980000       0.61100000       0.55020000
    72  H          0.08020000       0.11100000       0.94980000
    73  C          0.61206800       0.34676160       0.55882800
    74  C          0.88793200       0.84676160       0.94117200
    75  C          0.38793200       0.65323840       0.44117200
    76  C          0.11206800       0.15323840       0.05882800
    77  C          0.54037800       0.25854170       0.60726900
    78  C          0.95962200       0.75854170       0.89273100
    79  C          0.45962200       0.74145830       0.39273100
    80  C          0.04037800       0.24145830       0.10726900
    81  H          0.49810000       0.24230000       0.58340000
    82  H          0.00190000       0.74230000       0.91660000
    83  H          0.50190000       0.75770000       0.41660000
    84  H         -0.00190000       0.25770000       0.08340000
    85  C          0.53160800       0.19660180       0.68807900
    86  C          0.96839200       0.69660180       0.81192100
    87  C          0.46839200       0.80339820       0.31192100
    88  C          0.03160800       0.30339820       0.18807900
    89  H          0.48370000       0.13680000       0.72000000
    90  H          0.01630000       0.63680000       0.78000000
    91  H          0.51630000       0.86320000       0.28000000
    92  H          0.98370000       0.36320000       0.22000000
    93  C          0.59366800       0.22179180       0.72336800
    94  C          0.90633200       0.72179180       0.77663200
    95  C          0.40633200       0.77820820       0.27663200
    96  C          0.09366800       0.27820820       0.22336800
    97  H          0.58750000       0.17800000       0.77930000
    98  H          0.91250000       0.67800000       0.72070000
    99  H          0.41250000       0.82200000       0.22070000
   100  H          0.08750000       0.32200000       0.27930000
   101  C          0.66322800       0.30870170       0.67851800
   102  C          0.83677200       0.80870170       0.82148200
   103  C          0.33677200       0.69129830       0.32148200
   104  C          0.16322800       0.19129830       0.17851800
   105  H          0.70410000       0.32600000       0.70420000
   106  H          0.79590000       0.82600000       0.79580000
   107  H          0.29590000       0.67400000       0.29580000
   108  H          0.20410000       0.17400000       0.20420000
   109  C          0.67458700       0.37250160       0.59479800
   110  C          0.82541300       0.87250160       0.90520200
   111  C          0.32541300       0.62749840       0.40520200
   112  C          0.17458700       0.12749840       0.09479800
   113  C          0.74807700       0.46059150       0.54386800
   114  C          0.75192300       0.96059150       0.95613200
   115  C          0.25192300       0.53940850       0.45613200
   116  C          0.24807700       0.03940850       0.04386800
   117  C          0.81297800       0.48913160       0.57733800
   118  C          0.68702200      -0.01086840       0.92266200
   119  C          0.18702200       0.51086840       0.42266200
   120  C          0.31297800       0.01086840       0.07733800
   121  H          0.80740000       0.45210000       0.63420000
   122  H          0.69260000       0.95210000       0.86580000
   123  H          0.19260000       0.54790000       0.36580000
   124  H          0.30740000       0.04790000       0.13420000
   125  C          0.88257800       0.56850160       0.52908800
   126  C          0.61742200       0.06850160       0.97091200
   127  C          0.11742200       0.43149840       0.47091200
   128  C          0.38257800       0.93149840       0.02908800
   129  H          0.92470000       0.58600000       0.55310000
   130  H          0.57530000       0.08600000       0.94690000
   131  H          0.07530000       0.41400000       0.44690000
   132  H          0.42470000       0.91400000       0.05310000
   133  C          0.89364700       0.62584160       0.44345800
   134  C          0.60635300       0.12584160       0.05654200
   135  C          0.10635300       0.37415840       0.55654200
   136  C          0.39364700       0.87415840       0.94345800
   137  C          0.96687800       0.70532170       0.39276900
   138  C          0.53312200       0.20532170       0.10723100
   139  C          0.03312200       0.29467830       0.60723100
   140  C          0.46687800       0.79467830       0.89276900
   141  H          0.00970000       0.71940000       0.41590000
   142  H          0.49030000       0.21940000       0.08410000
   143  H          0.99030000       0.28060000       0.58410000
   144  H          0.50970000       0.78060000       0.91590000
   145  C          0.97656800       0.76203170       0.31079900
   146  C          0.52343200       0.26203170       0.18920100
   147  C          0.02343200       0.23796830       0.68920100
   148  C          0.47656800       0.73796830       0.81079900
   149  H          0.02590000       0.81460000       0.27720000
   150  H          0.47410000       0.31460000       0.22280000
   151  H          0.97410000       0.18540000       0.72280000
   152  H          0.52590000       0.68540000       0.77720000
   153  C          0.91324800       0.74204170       0.27692800
   154  C          0.58675200       0.24204170       0.22307200
   155  C          0.08675200       0.25795830       0.72307200
   156  C          0.41324800       0.75795830       0.77692800
   157  H          0.91960000       0.78280000       0.22040000
   158  H          0.58040000       0.28280000       0.27960000
   159  H          0.08040000       0.21720000       0.77960000
   160  H          0.41960000       0.71720000       0.72040000
   161  C          0.84204800       0.66436160       0.32434800
   162  C          0.65795200       0.16436160       0.17565200
   163  C          0.15795200       0.33563840       0.67565200
   164  C          0.34204800       0.83563840       0.82434800
   165  H          0.79990000       0.65200000       0.30000000
   166  H          0.70010000       0.15200000       0.20000000
   167  H          0.20010000       0.34800000       0.70000000
   168  H          0.29990000       0.84800000       0.80000000
   169  C          0.83017700       0.60251150       0.40851800
   170  C          0.66982300       0.10251150       0.09148200
   171  C          0.16982300       0.39748850       0.59148200
   172  C          0.33017700       0.89748850       0.90851800
   173  C          0.75630700       0.51685150       0.45981800
   174  C          0.74369300       0.01685150       0.04018200
   175  C          0.24369300       0.48314850       0.54018200
   176  C          0.25630700      -0.01685150       0.95981800
