data_JOBRUQ
_symmetry_space_group_name_H-M    'P1'
_symmetry_Int_Tables_number       1
loop_
_symmetry_equiv_pos_site_id
_symmetry_equiv_pos_as_xyz
1 x,y,z
_cell_length_a                   12.60196
_cell_length_b                   7.75203
_cell_length_c                   23.471111
_cell_angle_alpha                90.0
_cell_angle_beta                 91.8144
_cell_angle_gamma                90.0
loop_
_atom_site_label
_atom_site_type_symbol
_atom_site_fract_x
_atom_site_fract_y
_atom_site_fract_z
     1  N          0.96388870       0.63721190       0.93930300
     2  N          0.03611130       0.13721190       0.56069700
     3  N          0.03611130       0.36278810       0.06069700
     4  N          0.96388870       0.86278810       0.43930300
     5  N          0.12644120       0.60702000       0.81176300
     6  N          0.87355880       0.10702000       0.68823700
     7  N          0.87355880       0.39298000       0.18823700
     8  N          0.12644120       0.89298000       0.31176300
     9  O          0.81625900       0.60267150       0.01167500
    10  O          0.18374100       0.10267150       0.48832500
    11  O          0.18374100       0.39732850       0.98832500
    12  O          0.81625900       0.89732850       0.51167500
    13  O          0.72678900       0.69893160       0.10648600
    14  O          0.27321100       0.19893160       0.39351400
    15  O          0.27321100       0.30106840       0.89351400
    16  O          0.72678900       0.80106840       0.60648600
    17  C          0.97064860       0.77252000       0.03070800
    18  C          0.02935140       0.27252000       0.46929200
    19  C          0.02935140       0.22748000       0.96929200
    20  C          0.97064860       0.72748000       0.53070800
    21  C          0.02735160       0.88342000       0.06936800
    22  C          0.97264840       0.38342000       0.43063200
    23  C          0.97264840       0.11658000       0.93063200
    24  C          0.02735160       0.61658000       0.56936800
    25  C          0.98419840       0.93122000       0.11923800
    26  C          0.01580160       0.43122000       0.38076200
    27  C          0.01580160       0.06878000       0.88076200
    28  C          0.98419840       0.56878000       0.61923800
    29  C          0.88183840       0.87232000       0.13330800
    30  C          0.11816160       0.37232000       0.36669200
    31  C          0.11816160       0.12768000       0.86669200
    32  C          0.88183840       0.62768000       0.63330800
    33  C          0.82554850       0.76382000       0.09761800
    34  C          0.17445150       0.26382000       0.40238200
    35  C          0.17445150       0.23618000       0.90238200
    36  C          0.82554850       0.73618000       0.59761800
    37  C          0.86829850       0.70732000       0.04462800
    38  C          0.13170150       0.20732000       0.45537200
    39  C          0.13170150       0.29268000       0.95537200
    40  C          0.86829850       0.79268000       0.54462800
    41  C          0.01429150       0.73152000       0.97812200
    42  C          0.98570850       0.23152000       0.52187800
    43  C          0.98570850       0.26848000       0.02187800
    44  C          0.01429150       0.76848000       0.47812200
    45  C         -0.00169140       0.59372000       0.88456200
    46  C          0.00169140       0.09372000       0.61543800
    47  C          0.00169140       0.40628000       0.11543800
    48  C         -0.00169140       0.90628000       0.38456200
    49  C          0.93219850       0.49392000       0.84967200
    50  C          0.06780150      -0.00608000       0.65032800
    51  C          0.06780150       0.50608000       0.15032800
    52  C          0.93219850       0.00608000       0.34967200
    53  C          0.96526850       0.45062000       0.79606200
    54  C          0.03473150       0.95062000       0.70393800
    55  C          0.03473150       0.54938000       0.20393800
    56  C          0.96526850       0.04938000       0.29606200
    57  C          0.06276150       0.50762000       0.77887200
    58  C          0.93723850       0.00762000       0.72112800
    59  C          0.93723850       0.49238000       0.22112800
    60  C          0.06276150      -0.00762000       0.27887200
    61  C          0.09492150       0.64752000       0.86380200
    62  C          0.90507850       0.14752000       0.63619800
    63  C          0.90507850       0.35248000       0.13619800
    64  C          0.09492150       0.85248000       0.36380200
    65  C          0.67500830       0.75343000       0.15669900
    66  C          0.32499170       0.25343000       0.34330100
    67  C          0.32499170       0.24657000       0.84330100
    68  C          0.67500830       0.74657000       0.65669900
    69  H          0.09721500       0.92509000       0.06002000
    70  H          0.90278500       0.42509000       0.43998000
    71  H          0.90278500       0.07491000       0.93998000
    72  H          0.09721500       0.57491000       0.56002000
    73  H          0.02369000       0.00601700       0.14536000
    74  H          0.97631000       0.50601700       0.35464000
    75  H          0.97631000      -0.00601700       0.85464000
    76  H          0.02369000       0.49398300       0.64536000
    77  H          0.85233000       0.90799000       0.16748000
    78  H          0.14767000       0.40799000       0.33252000
    79  H          0.14767000       0.09201000       0.83252000
    80  H          0.85233000       0.59201000       0.66748000
    81  H          0.08541500       0.77509000       0.96997810
    82  H          0.91458500       0.27509000       0.53002190
    83  H          0.91458500       0.22491000       0.03002190
    84  H          0.08541500       0.72491000       0.46997810
    85  H          0.86478500       0.45579000       0.86247000
    86  H          0.13521500       0.95579000       0.63753000
    87  H          0.13521500       0.54421000       0.13753000
    88  H          0.86478500       0.04421000       0.36247000
    89  H          0.92109000       0.38191600       0.77114000
    90  H          0.07891000       0.88191600       0.72886000
    91  H          0.07891000       0.61808400       0.22886000
    92  H          0.92109000       0.11808400       0.27114000
    93  H          0.08606000       0.47488000       0.74171000
    94  H          0.91394000       0.97488000       0.75829000
    95  H          0.91394000       0.52512000       0.25829000
    96  H          0.08606000       0.02512000       0.24171000
    97  H          0.14091000       0.71671500       0.88785000
    98  H          0.85909000       0.21671500       0.61215000
    99  H          0.85909000       0.28328500       0.11215000
   100  H          0.14091000       0.78328500       0.38785000
   101  H          0.71660000       0.71930000       0.18980000
   102  H          0.28340000       0.21930000       0.31020000
   103  H          0.28340000       0.28070000       0.81020000
   104  H          0.71660000       0.78070000       0.68980000
   105  H          0.60610000       0.70090000       0.15780000
   106  H          0.39390000       0.20090000       0.34220000
   107  H          0.39390000       0.29910000       0.84220000
   108  H          0.60610000       0.79910000       0.65780000
   109  H          0.66750000       0.87670000       0.15630000
   110  H          0.33250000       0.37670000       0.34370000
   111  H          0.33250000       0.12330000       0.84370000
   112  H          0.66750000       0.62330000       0.65630000
   113  H          0.89680000       0.60130000       0.95029000
   114  H          0.10320000       0.10130000       0.54971000
   115  H          0.10320000       0.39870000       0.04971000
   116  H          0.89680000       0.89870000       0.45029000
   117  S          0.30354400       0.15276600       0.14105200
   118  S          0.69645600       0.65276600       0.35894800
   119  S          0.69645600       0.84723400       0.85894800
   120  S          0.30354400       0.34723400       0.64105200
   121  O          0.73175110       0.20284180       0.24559600
   122  O          0.26824890       0.70284180       0.25440400
   123  O          0.26824890       0.79715820       0.75440400
   124  O          0.73175110       0.29715820       0.74559600
   125  O          0.31799120       0.63968810       0.95728400
   126  O          0.68200880       0.13968810       0.54271600
   127  O          0.68200880       0.36031190       0.04271600
   128  O          0.31799120       0.86031190       0.45728400
   129  O          0.23431100       0.08839170       0.18382600
   130  O          0.76568900       0.58839170       0.31617400
   131  O          0.76568900       0.91160830       0.81617400
   132  O          0.23431100       0.41160830       0.68382600
   133  O          0.27897100       0.31573160       0.11427600
   134  O          0.72102900       0.81573160       0.38572400
   135  O          0.72102900       0.68426840       0.88572400
   136  O          0.27897100       0.18426840       0.61427600
   137  C          0.43252140       0.16682000       0.17165800
   138  C          0.56747860       0.66682000       0.32834200
   139  C          0.56747860       0.83318000       0.82834200
   140  C          0.43252140       0.33318000       0.67165800
   141  C          0.50959140       0.26032000       0.14424800
   142  C          0.49040860       0.76032000       0.35575200
   143  C          0.49040860       0.73968000       0.85575200
   144  C          0.50959140       0.23968000       0.64424800
   145  C          0.61041150       0.27262000       0.16830800
   146  C          0.38958850       0.77262000       0.33169200
   147  C          0.38958850       0.72738000       0.83169200
   148  C          0.61041150       0.22738000       0.66830800
   149  C          0.63451140       0.19112000       0.22012800
   150  C          0.36548860       0.69112000       0.27987200
   151  C          0.36548860       0.80888000       0.77987200
   152  C          0.63451140       0.30888000       0.72012800
   153  C          0.55734150       0.09532000       0.24688800
   154  C          0.44265850       0.59532000       0.25311200
   155  C          0.44265850       0.90468000       0.75311200
   156  C          0.55734150       0.40468000       0.74688800
   157  C          0.45636150       0.08302000       0.22249800
   158  C          0.54363850       0.58302000       0.27750200
   159  C          0.54363850       0.91698000       0.77750200
   160  C          0.45636150       0.41698000       0.72249800
   161  C          0.31112140      -0.00242000       0.08673800
   162  C          0.68887860       0.49758000       0.41326200
   163  C          0.68887860       0.00242000       0.91326200
   164  C          0.31112140       0.50242000       0.58673800
   165  C          0.32483150       0.04952000       0.03102800
   166  C          0.67516850       0.54952000       0.46897200
   167  C          0.67516850       0.95048000       0.96897200
   168  C          0.32483150       0.45048000       0.53102800
   169  C          0.32781150       0.92758000       0.98821200
   170  C          0.67218850       0.42758000       0.51178800
   171  C          0.67218850       0.07242000       0.01178800
   172  C          0.32781150       0.57242000       0.48821200
   173  C          0.31756140       0.75308000       0.00115800
   174  C          0.68243860       0.25308000       0.49884200
   175  C          0.68243860       0.24692000      -0.00115800
   176  C          0.31756140       0.74692000       0.50115800
   177  C          0.30682150       0.70088000       0.05760800
   178  C          0.69317850       0.20088000       0.44239200
   179  C          0.69317850       0.29912000       0.94239200
   180  C          0.30682150       0.79912000       0.55760800
   181  C          0.30369140       0.82278000       0.10031800
   182  C          0.69630860       0.32278000       0.39968200
   183  C          0.69630860       0.17722000       0.89968200
   184  C          0.30369140       0.67722000       0.60031800
   185  H          0.77620000       0.27030000       0.22441200
   186  H          0.22380000       0.77030000       0.27558800
   187  H          0.22380000       0.72970000       0.77558800
   188  H          0.77620000       0.22970000       0.72441200
   189  H          0.28720000       0.54670000       0.96608900
   190  H          0.71280000       0.04670000       0.53391100
   191  H          0.71280000       0.45330000       0.03391100
   192  H          0.28720000       0.95330000       0.46608900
   193  H          0.49330000       0.31460000       0.10970000
   194  H          0.50670000       0.81460000       0.39030000
   195  H          0.50670000       0.68540000       0.89030000
   196  H          0.49330000       0.18540000       0.60970000
   197  H          0.66240000       0.33520000       0.15000000
   198  H          0.33760000       0.83520000       0.35000000
   199  H          0.33760000       0.66480000       0.85000000
   200  H          0.66240000       0.16480000       0.65000000
   201  H          0.57360000       0.03950000       0.28110000
   202  H          0.42640000       0.53950000       0.21890000
   203  H          0.42640000       0.96050000       0.71890000
   204  H          0.57360000       0.46050000       0.78110000
   205  H          0.40460000       0.01860000       0.24020000
   206  H          0.59540000       0.51860000       0.25980000
   207  H          0.59540000       0.98140000       0.75980000
   208  H          0.40460000       0.48140000       0.74020000
   209  H          0.33200000       0.16600000       0.02250000
   210  H          0.66800000       0.66600000       0.47750000
   211  H          0.66800000       0.83400000       0.97750000
   212  H          0.33200000       0.33400000       0.52250000
   213  H          0.33670000       0.96200000       0.95070000
   214  H          0.66330000       0.46200000       0.54930000
   215  H          0.66330000       0.03800000       0.04930000
   216  H          0.33670000       0.53800000       0.45070000
   217  H          0.30180000       0.58430000       0.06640000
   218  H          0.69820000       0.08430000       0.43360000
   219  H          0.69820000       0.41570000       0.93360000
   220  H          0.30180000       0.91570000       0.56640000
   221  H          0.29670000       0.78870000       0.13800000
   222  H          0.70330000       0.28870000       0.36200000
   223  H          0.70330000       0.21130000       0.86200000
   224  H          0.29670000       0.71130000       0.63800000
