data_JOCVEC
_symmetry_space_group_name_H-M    'P1'
_symmetry_Int_Tables_number       1
loop_
_symmetry_equiv_pos_site_id
_symmetry_equiv_pos_as_xyz
1 x,y,z
_cell_length_a                   7.1141
_cell_length_b                   7.0621
_cell_length_c                   12.6361
_cell_angle_alpha                94.5615
_cell_angle_beta                 100.7745
_cell_angle_gamma                113.2735
loop_
_atom_site_label
_atom_site_type_symbol
_atom_site_fract_x
_atom_site_fract_y
_atom_site_fract_z
     1  C          0.86917000       0.69097000       0.27189000
     2  C          0.13083000       0.30903000       0.72811000
     3  C          0.88187000       0.88267000       0.23879000
     4  C          0.11813000       0.11733000       0.76121000
     5  C          0.93807000       0.05653000       0.32309000
     6  C          0.06193000       0.94347000       0.67691000
     7  C         -0.01253000       0.17222000       0.40819000
     8  C          0.01253000       0.82778000       0.59181000
     9  C          0.91067000       0.68758000       0.38689000
    10  C          0.08933000       0.31242000       0.61311000
    11  C          0.04463000       0.26662000       0.51519000
    12  C          0.95537000       0.73338000       0.48481000
    13  C          0.84047000       0.89217000       0.12799000
    14  C          0.15953000       0.10783000       0.87201000
    15  C          0.78707000       0.71806000       0.05149000
    16  C          0.21293000       0.28194000       0.94851000
    17  C          0.77627000       0.53297000       0.08338000
    18  C          0.22373000       0.46703000       0.91662000
    19  C          0.81657000       0.51857000       0.19309000
    20  C          0.18343000       0.48143000       0.80691000
    21  H          0.84737000       0.01933000       0.10549000
    22  H          0.15263000      -0.01933000       0.89451000
    23  H          0.75887000       0.72606000       0.97599000
    24  H          0.24113000       0.27394000       0.02401000
    25  H          0.74067000       0.41507000       0.02948000
    26  H          0.25933000       0.58493000       0.97052000
    27  H          0.80927000       0.39077000       0.21489000
    28  H          0.19073000       0.60923000       0.78511000
    29  N          0.31493000       0.40842000       0.23881000
    30  N          0.68507000       0.59158000       0.76119000
    31  N          0.36753000      -0.02107000       0.11831000
    32  N          0.63247000       0.02107000       0.88169000
    33  C          0.44212000       0.89662000       0.39091000
    34  C          0.55788000       0.10338000       0.60909000
    35  C          0.38942000       0.79652000       0.28471000
    36  C          0.61058000       0.20348000       0.71529000
    37  C          0.37603000       0.90023000       0.19321000
    38  C          0.62397000       0.09977000       0.80679000
    39  C          0.34763000       0.58113000       0.25911000
    40  C          0.65237000       0.41887000       0.74089000
    41  C          0.48373000       0.11372000       0.41511000
    42  C          0.51627000       0.88628000       0.58489000
    43  C          0.46113000       0.78842000       0.48131000
    44  C          0.53887000       0.21158000       0.51869000
    45  H          0.47213000       0.18852000       0.35691000
    46  H          0.52787000       0.81148000       0.64309000
    47  H          0.43423000       0.64492000       0.46731000
    48  H          0.56577000       0.35508000       0.53269000
