data_JOFNOK01
_symmetry_space_group_name_H-M    'P1'
_symmetry_Int_Tables_number       1
loop_
_symmetry_equiv_pos_site_id
_symmetry_equiv_pos_as_xyz
1 x,y,z
_cell_length_a                   4.034401
_cell_length_b                   10.88352
_cell_length_c                   12.29682
_cell_angle_alpha                110.4242
_cell_angle_beta                 92.6562
_cell_angle_gamma                94.5792
loop_
_atom_site_label
_atom_site_type_symbol
_atom_site_fract_x
_atom_site_fract_y
_atom_site_fract_z
     1  I          0.70851400       0.71034200       0.28631200
     2  I          0.29148600       0.28965800       0.71368800
     3  Cl         0.40162000       0.73318700       0.54100700
     4  Cl         0.59838000       0.26681300       0.45899300
     5  Cl         0.22812000      -0.01321300       0.72868600
     6  Cl         0.77188000       0.01321300       0.27131400
     7  C          0.58247000       0.88283000       0.41362000
     8  C          0.41753000       0.11717000       0.58638000
     9  C          0.45917000       0.88063000       0.51682000
    10  C          0.54083000       0.11937000       0.48318000
    11  C          0.37737000      -0.00527000       0.60172000
    12  C          0.62263000       0.00527000       0.39828000
    13  N          0.88668000       0.45523000       0.14342000
    14  N          0.11332000       0.54477000       0.85658000
    15  C          0.04649000       0.40753000       0.21593000
    16  C          0.95351000       0.59247000       0.78407000
    17  H          0.11564400       0.46620900       0.29265900
    18  H          0.88435600       0.53379100       0.70734100
    19  C          0.11569000       0.27863000       0.18553000
    20  C          0.88431000       0.72137000       0.81447000
    21  H          0.23392400       0.25053800       0.23980800
    22  H          0.76607600       0.74946200       0.76019200
    23  C          0.01078000       0.18933000       0.07433000
    24  C         -0.01078000       0.81067000       0.92567000
    25  C          0.84529000       0.23773000      -0.00113000
    26  C          0.15471000       0.76227000       0.00113000
    27  H          0.77041700       0.18110700       0.92198800
    28  H          0.22958300       0.81889300       0.07801200
    29  C          0.79009000       0.36973000       0.03703000
    30  C          0.20991000       0.63027000       0.96297000
    31  H          0.67646500       0.40102800       0.98403900
    32  H          0.32353500       0.59897200       0.01596100
    33  C          0.07918000       0.05063000       0.04353000
    34  C          0.92082000       0.94937000       0.95647000
    35  H          0.24995300       0.03213200       0.08964000
    36  H          0.75004700       0.96786800       0.91036000
