data_JOHFOD
_symmetry_space_group_name_H-M    'P1'
_symmetry_Int_Tables_number       1
loop_
_symmetry_equiv_pos_site_id
_symmetry_equiv_pos_as_xyz
1 x,y,z
_cell_length_a                   7.486514
_cell_length_b                   13.5223
_cell_length_c                   17.2403
_cell_angle_alpha                67.7699
_cell_angle_beta                 81.3629
_cell_angle_gamma                79.1669
loop_
_atom_site_label
_atom_site_type_symbol
_atom_site_fract_x
_atom_site_fract_y
_atom_site_fract_z
     1  I          0.26319200       0.51785615       0.72237411
     2  I          0.73680800       0.48214385       0.27762589
     3  Cl         0.70181110       0.97588600       0.73615500
     4  Cl         0.29818890       0.02411400       0.26384500
     5  Cl         0.37297140       0.86567800       0.04985600
     6  Cl         0.62702860       0.13432200       0.95014400
     7  Cl         0.44470110       0.62079700       0.06603500
     8  Cl         0.55529890       0.37920300       0.93396500
     9  O          0.73753000       0.75083160       0.76364120
    10  O          0.26247000       0.24916840       0.23635880
    11  C          0.47533000       0.57572000       0.74179170
    12  C          0.52467000       0.42428000       0.25820830
    13  C          0.60173000       0.60782000       0.75362160
    14  C          0.39827000       0.39218000       0.24637840
    15  C          0.76693000       0.64242000       0.76541190
    16  C          0.23307000       0.35758000       0.23458810
    17  H          0.81100000       0.59420000       0.81900000
    18  H          0.18900000       0.40580000       0.18100000
    19  H          0.86100000       0.63640000       0.72150000
    20  H          0.13900000       0.36360000       0.27850000
    21  C          0.65333000       0.77042000       0.83274160
    22  C          0.34667000       0.22958000       0.16725840
    23  C          0.62563000       0.87762000       0.82764180
    24  C          0.37437000       0.12238000       0.17235820
    25  C          0.54074000       0.90572000       0.89359190
    26  C          0.45926000       0.09428000       0.10640810
    27  H          0.52210000       0.97760000       0.88880000
    28  H          0.47790000       0.02240000       0.11120000
    29  C          0.48214000       0.82772000       0.96766180
    30  C          0.51786000       0.17228000       0.03233820
    31  C          0.51003000       0.72112000       0.97397160
    32  C          0.48997000       0.27888000       0.02602840
    33  C          0.59293000       0.69262000       0.90656170
    34  C          0.40707000       0.30738000       0.09343830
    35  H          0.60810000       0.62090000       0.91080000
    36  H          0.39190000       0.37910000       0.08920000
    37  I          0.08025300       0.17552216       0.46735513
    38  I          0.91974700       0.82447784       0.53264487
    39  Cl         0.92760860       0.92062400       0.16079600
    40  Cl         0.07239140       0.07937600       0.83920400
    41  Cl         0.07940100       0.30637700       0.94294600
    42  Cl         0.92059900       0.69362300       0.05705400
    43  Cl         0.88258880       0.41185600       0.07516500
    44  Cl         0.11741120       0.58814400       0.92483500
    45  O          0.77487000       0.03345140       0.27277110
    46  O          0.22513000       0.96654860       0.72722890
    47  C          0.90566000       0.13902000       0.40692180
    48  C          0.09434000       0.86098000       0.59307820
    49  C          0.80646000       0.11382000       0.37268170
    50  C          0.19354000       0.88618000       0.62731830
    51  C          0.68246000       0.07782000       0.33442160
    52  C          0.31754000       0.92218000       0.66557840
    53  H          0.61860000       0.02350000       0.37820000
    54  H          0.38140000       0.97650000       0.62180000
    55  H          0.59210000       0.13850000       0.30780000
    56  H          0.40790000       0.86150000       0.69220000
    57  C          0.84137000       0.10212000       0.19797150
    58  C          0.15863000       0.89788000       0.80202850
    59  C          0.92316000       0.05742000       0.13794170
    60  C          0.07684000       0.94258000       0.86205830
    61  C         -0.00303000       0.11952000       0.06098170
    62  C          0.00303000       0.88048000       0.93901830
    63  H          0.05370000       0.08770000       0.02260000
    64  H          0.94630000       0.91230000       0.97740000
    65  C         -0.01293000       0.22902000       0.04062150
    66  C          0.01293000       0.77098000       0.95937850
    67  C          0.90357000       0.27482000       0.09854160
    68  C          0.09643000       0.72518000       0.90145840
    69  C          0.83327000       0.21222000       0.17721150
    70  C          0.16673000       0.78778000       0.82278850
    71  H          0.78070000       0.24400000       0.21610000
    72  H          0.21930000       0.75600000       0.78390000
    73  N          0.95803000       0.44162000       0.68899180
    74  N          0.04197000       0.55838000       0.31100820
    75  N          0.32914000       0.23122000       0.54567170
    76  N          0.67086000       0.76878000       0.45432830
    77  C          0.77874000       0.45023000       0.58227190
    78  C          0.22126000       0.54977000       0.41772810
    79  H          0.74490000       0.48610000       0.52770000
    80  H          0.25510000       0.51390000       0.47230000
    81  C          0.90164000       0.48823000       0.61202000
    82  C          0.09836000       0.51177000       0.38798000
    83  H          0.94820000       0.55040000       0.57600000
    84  H          0.05180000       0.44960000       0.42400000
    85  C          0.88235000       0.35553000       0.73912000
    86  C          0.11765000       0.64447000       0.26088000
    87  H          0.91560000       0.32260000       0.79400000
    88  H          0.08440000       0.67740000       0.20600000
    89  C          0.75795000       0.31182000       0.71532190
    90  C          0.24205000       0.68818000       0.28467810
    91  H          0.70920000       0.25150000       0.75350000
    92  H          0.29080000       0.74850000       0.24650000
    93  C          0.70593000       0.35812000       0.63426160
    94  C          0.29407000       0.64188000       0.36573840
    95  C          0.57493000       0.31322000       0.60448160
    96  C          0.42507000       0.68678000       0.39551840
    97  C          0.43244000       0.26472000       0.65657180
    98  C          0.56756000       0.73528000       0.34342820
    99  H          0.41670000       0.25810000       0.71280000
   100  H          0.58330000       0.74190000       0.28720000
   101  C          0.31345000       0.22623000       0.62492000
   102  C          0.68655000       0.77377000       0.37508000
   103  H          0.21690000       0.19510000       0.66080000
   104  H          0.78310000       0.80490000       0.33920000
   105  C          0.46725000       0.27643000       0.49642000
   106  C          0.53275000       0.72357000       0.50358000
   107  H          0.48120000       0.28050000       0.44080000
   108  H          0.51880000       0.71950000       0.55920000
   109  C          0.59114000       0.31793000       0.52209190
   110  C          0.40886000       0.68207000       0.47790810
   111  H          0.68560000       0.34900000       0.48450000
   112  H          0.31440000       0.65100000       0.51550000
