data_JOJFEX
_symmetry_space_group_name_H-M    'P1'
_symmetry_Int_Tables_number       1
loop_
_symmetry_equiv_pos_site_id
_symmetry_equiv_pos_as_xyz
1 x,y,z
_cell_length_a                   7.52502
_cell_length_b                   21.61655
_cell_length_c                   14.12984
_cell_angle_alpha                90.0
_cell_angle_beta                 99.6352
_cell_angle_gamma                90.0
loop_
_atom_site_label
_atom_site_type_symbol
_atom_site_fract_x
_atom_site_fract_y
_atom_site_fract_z
     1  I          0.17756200       0.88631200       0.14419200
     2  I          0.82243800       0.38631200       0.35580800
     3  I          0.82243800       0.11368800       0.85580800
     4  I          0.17756200       0.61368800       0.64419200
     5  I          0.56965300       0.66690200       0.47799200
     6  I          0.43034700       0.16690200       0.02200800
     7  I          0.43034700       0.33309800       0.52200800
     8  I          0.56965300       0.83309800       0.97799200
     9  F          0.38892000       0.89781600       0.36045110
    10  F          0.61108000       0.39781600       0.13954890
    11  F          0.61108000       0.10218400       0.63954890
    12  F          0.38892000       0.60218400       0.86045110
    13  F          0.52632000       0.81418800       0.48965100
    14  F          0.47368000       0.31418800       0.01034900
    15  F          0.47368000       0.18581200       0.51034900
    16  F          0.52632000       0.68581200       0.98965100
    17  F          0.24642000       0.73936700       0.12930110
    18  F          0.75358000       0.23936700       0.37069890
    19  F          0.75358000       0.26063300       0.87069890
    20  F          0.24642000       0.76063300       0.62930110
    21  F          0.39672000       0.65650700       0.25635120
    22  F          0.60328000       0.15650700       0.24364880
    23  F          0.60328000       0.34349300       0.74364880
    24  F          0.39672000       0.84349300       0.75635120
    25  C          0.38693000       0.83831110       0.33335180
    26  C          0.61307000       0.33831110       0.16664820
    27  C          0.61307000       0.16168890       0.66664820
    28  C          0.38693000       0.66168890       0.83335180
    29  C          0.30963000       0.82127110       0.24138170
    30  C          0.69037000       0.32127110       0.25861830
    31  C          0.69037000       0.17872890       0.75861830
    32  C          0.30963000       0.67872890       0.74138170
    33  C          0.46093000       0.79490120       0.39997170
    34  C          0.53907000       0.29490120       0.10002830
    35  C          0.53907000       0.20509880       0.60002830
    36  C          0.46093000       0.70509880       0.89997170
    37  C          0.39474000       0.71620110       0.28393190
    38  C          0.60526000       0.21620110       0.21606810
    39  C          0.60526000       0.28379890       0.71606810
    40  C          0.39474000       0.78379890       0.78393190
    41  C          0.31774000       0.75924110       0.21770180
    42  C          0.68226000       0.25924110       0.28229820
    43  C          0.68226000       0.24075890       0.78229820
    44  C          0.31774000       0.74075890       0.71770180
    45  C          0.46613000       0.73303110       0.37652180
    46  C          0.53387000       0.23303110       0.12347820
    47  C          0.53387000       0.26696890       0.62347820
    48  C          0.46613000       0.76696890       0.87652180
    49  I          0.94469200       0.85855200       0.40441200
    50  I          0.05530800       0.35855200       0.09558800
    51  I          0.05530800       0.14144800       0.59558800
    52  I          0.94469200       0.64144800       0.90441200
    53  I          0.34666200       0.49273200       0.36628200
    54  I          0.65333800       0.99273200       0.13371800
    55  I          0.65333800       0.50726800       0.63371800
    56  I          0.34666200       0.00726800       0.86628200
    57  N          0.73753000       0.56261800       0.20245140
    58  N          0.26247000       0.06261800       0.29754860
    59  N          0.26247000       0.43738200       0.79754860
    60  N          0.73753000       0.93738200       0.70245140
    61  C          0.48253000       0.52086110       0.25656160
    62  C          0.51747000       0.02086110       0.24343840
    63  C          0.51747000       0.47913890       0.74343840
    64  C          0.48253000       0.97913890       0.75656160
    65  C          0.38683000       0.52416110       0.16379170
    66  C          0.61317000       0.02416110       0.33620830
    67  C          0.61317000       0.47583890       0.83620830
    68  C          0.38683000       0.97583890       0.66379170
    69  H          0.26571100       0.50999700       0.14992900
    70  H          0.73428900       0.00999700       0.35007100
    71  H          0.73428900       0.49000300       0.85007100
    72  H          0.26571100       0.99000300       0.64992900
    73  C          0.47043000       0.54848110       0.09136170
    74  C          0.52957000       0.04848110       0.40863830
    75  C          0.52957000       0.45151890       0.90863830
    76  C          0.47043000       0.95151890       0.59136170
    77  H          0.40553300       0.55213500       0.02787400
    78  H          0.59446700       0.05213500       0.47212600
    79  H          0.59446700       0.44786500       0.97212600
    80  H          0.40553300       0.94786500       0.52787400
    81  C          0.64643000       0.56710110       0.11193170
    82  C          0.35357000       0.06710110       0.38806830
    83  C          0.35357000       0.43289890       0.88806830
    84  C          0.64643000       0.93289890       0.61193170
    85  H          0.70454300       0.58319600       0.06248900
    86  H          0.29545700       0.08319600       0.43751100
    87  H          0.29545700       0.41680400       0.93751100
    88  H          0.70454300       0.91680400       0.56248900
    89  C          0.93393000       0.76881110       0.34507180
    90  C          0.06607000       0.26881110       0.15492820
    91  C          0.06607000       0.23118890       0.65492820
    92  C          0.93393000       0.73118890       0.84507180
    93  C          0.65893000       0.54032100       0.27472160
    94  C          0.34107000       0.04032100       0.22527840
    95  C          0.34107000       0.45967900       0.72527840
    96  C          0.65893000       0.95967900       0.77472160
    97  H          0.72548800       0.53809600       0.33798900
    98  H          0.27451200       0.03809600       0.16201100
    99  H          0.27451200       0.46190400       0.66201100
   100  H          0.72548800       0.96190400       0.83798900
   101  C          0.92943000       0.65075110       0.26608180
   102  C          0.07057000       0.15075110       0.23391820
   103  C          0.07057000       0.34924890       0.73391820
   104  C          0.92943000       0.84924890       0.76608180
   105  C          0.00844000       0.66101120       0.36094180
   106  C         -0.00844000       0.16101120       0.13905820
   107  C         -0.00844000       0.33898880       0.63905820
   108  C          0.00844000       0.83898880       0.86094180
   109  H          0.06125600       0.62744600       0.39903200
   110  H          0.93874400       0.12744600       0.10096800
   111  H          0.93874400       0.37255400       0.60096800
   112  H          0.06125600       0.87255400       0.89903200
   113  C          0.01094000       0.71983120       0.40050180
   114  C         -0.01094000       0.21983120       0.09949820
   115  C         -0.01094000       0.28016880       0.59949820
   116  C          0.01094000       0.78016880       0.90050180
   117  H          0.06519800       0.72647400       0.46537300
   118  H          0.93480200       0.22647400       0.03462700
   119  H          0.93480200       0.27352600       0.53462700
   120  H          0.06519800       0.77352600       0.96537300
   121  C          0.92613000       0.58621120       0.22464190
   122  C          0.07387000       0.08621120       0.27535810
   123  C          0.07387000       0.41378880       0.77535810
   124  C          0.92613000       0.91378880       0.72464190
   125  H         -0.02029300       0.58675100       0.16527400
   126  H          0.02029300       0.08675100       0.33472600
   127  H          0.02029300       0.41324900       0.83472600
   128  H         -0.02029300       0.91324900       0.66527400
   129  H         -0.00081100       0.55824800       0.27123100
   130  H          0.00081100       0.05824800       0.22876900
   131  H          0.00081100       0.44175200       0.72876900
   132  H         -0.00081100       0.94175200       0.77123100
   133  C          0.85424000       0.70064120       0.21040180
   134  C          0.14576000       0.20064120       0.28959820
   135  C          0.14576000       0.29935880       0.78959820
   136  C          0.85424000       0.79935880       0.71040180
   137  H          0.80124300       0.69422100       0.14525700
   138  H          0.19875700       0.19422100       0.35474300
   139  H          0.19875700       0.30577900       0.85474300
   140  H          0.80124300       0.80577900       0.64525700
   141  C          0.85644000       0.75966120       0.24992000
   142  C          0.14356000       0.25966120       0.25008000
   143  C          0.14356000       0.24033880       0.75008000
   144  C          0.85644000       0.74033880       0.74992000
   145  H          0.80509800       0.79349700       0.21187300
   146  H          0.19490200       0.29349700       0.28812700
   147  H          0.19490200       0.20650300       0.78812700
   148  H          0.80509800       0.70650300       0.71187300
   149  Br         0.00000000      -0.00000000       0.50000000
   150  Br        -0.00000000       0.50000000      -0.00000000
   151  Br         0.00000000       0.00000000       0.00000000
   152  Br         0.00000000       0.50000000       0.50000000
