data_JOJFAT
_symmetry_space_group_name_H-M    'P1'
_symmetry_Int_Tables_number       1
loop_
_symmetry_equiv_pos_site_id
_symmetry_equiv_pos_as_xyz
1 x,y,z
_cell_length_a                   12.46294
_cell_length_b                   25.13447
_cell_length_c                   7.36983
_cell_angle_alpha                90.0
_cell_angle_beta                 95.6893
_cell_angle_gamma                90.0
loop_
_atom_site_label
_atom_site_type_symbol
_atom_site_fract_x
_atom_site_fract_y
_atom_site_fract_z
     1  I          0.43500500       0.39346200       0.44152700
     2  I          0.43500500       0.60653800       0.94152700
     3  I          0.93500500       0.89346200       0.44152700
     4  I          0.93500500       0.10653800       0.94152700
     5  I          0.17872500       0.64230200       0.46009900
     6  I          0.17872500       0.35769800       0.96009900
     7  I          0.67872500       0.14230200       0.46009900
     8  I          0.67872500       0.85769800       0.96009900
     9  F          0.42555000       0.60832000       0.43781000
    10  F          0.42555000       0.39168000       0.93781000
    11  F          0.92555000       0.10832000       0.43781000
    12  F          0.92555000       0.89168000       0.93781000
    13  F          0.18915000       0.42842000       0.46791300
    14  F          0.18915000       0.57158000       0.96791300
    15  F          0.68915000       0.92842000       0.46791300
    16  F          0.68915000       0.07158000       0.96791300
    17  F          0.52205000       0.51402000       0.42681300
    18  F          0.52205000       0.48598000       0.92681300
    19  F          0.02205000       0.01402000       0.42681300
    20  F          0.02205000       0.98598000       0.92681300
    21  C          0.41577000       0.51524000       0.44111400
    22  C          0.41577000       0.48476000       0.94111400
    23  C          0.91577000       0.01524000       0.44111400
    24  C          0.91577000       0.98476000       0.94111400
    25  F          0.09216000       0.52282000       0.47321600
    26  F          0.09216000       0.47718000       0.97321600
    27  F          0.59216000       0.02282000       0.47321600
    28  F          0.59216000       0.97718000       0.97321600
    29  C          0.35818000       0.46833000       0.44831200
    30  C          0.35818000       0.53167000       0.94831200
    31  C          0.85818000       0.96833000       0.44831200
    32  C          0.85818000       0.03167000       0.94831200
    33  C          0.36478000       0.56393000       0.44561200
    34  C          0.36478000       0.43607000       0.94561200
    35  C          0.86478000       0.06393000       0.44561200
    36  C          0.86478000       0.93607000       0.94561200
    37  C          0.25007000       0.47243000       0.46291400
    38  C          0.25007000       0.52757000       0.96291400
    39  C          0.75007000       0.97243000       0.46291400
    40  C          0.75007000       0.02757000       0.96291400
    41  C          0.25598000       0.56803000       0.45731200
    42  C          0.25598000       0.43197000       0.95731200
    43  C          0.75598000       0.06803000       0.45731200
    44  C          0.75598000       0.93197000       0.95731200
    45  C          0.19918000       0.52164000       0.46261700
    46  C          0.19918000       0.47836000       0.96261700
    47  C          0.69918000       0.02164000       0.46261700
    48  C          0.69918000       0.97836000       0.96261700
    49  I          0.55279600       0.73112200       0.92174200
    50  I          0.55279600       0.26887800       0.42174200
    51  I          0.05279600       0.23112200       0.92174200
    52  I          0.05279600       0.76887800       0.42174200
    53  Br         0.36254900       0.76942400       0.42130170
    54  Br         0.36254900       0.23057600       0.92130170
    55  Br         0.86254900       0.26942400       0.42130170
    56  Br         0.86254900       0.73057600       0.92130170
    57  Br         0.89978130       0.55463700       0.07762000
    58  Br         0.89978130       0.44536300       0.57762000
    59  Br         0.39978130       0.05463700       0.07762000
    60  Br         0.39978130       0.94536300       0.57762000
    61  N          0.66236000       0.70693000       0.39391000
    62  N          0.66236000       0.29307000       0.89391000
    63  N          0.16236000       0.20693000       0.39391000
    64  N          0.16236000       0.79307000       0.89391000
    65  C          0.75498000       0.62694000       0.52331400
    66  C          0.75498000       0.37306000       0.02331400
    67  C          0.25498000       0.12694000       0.52331400
    68  C          0.25498000       0.87306000       0.02331400
    69  C          0.51418000       0.76263000       0.42891300
    70  C          0.51418000       0.23737000       0.92891300
    71  C          0.01418000       0.26263000       0.42891300
    72  C          0.01418000       0.73737000       0.92891300
    73  C          0.72888000       0.74764000       0.43551500
    74  C          0.72888000       0.25236000       0.93551500
    75  C          0.22888000       0.24764000       0.43551500
    76  C          0.22888000       0.75236000       0.93551500
    77  H          0.80436700       0.74246500       0.43689000
    78  H          0.80436700       0.25753500       0.93689000
    79  H          0.30436700       0.24246500       0.43689000
    80  H          0.30436700       0.75753500       0.93689000
    81  C          0.55548000       0.71414000       0.38811200
    82  C          0.55548000       0.28586000       0.88811200
    83  C          0.05548000       0.21414000       0.38811200
    84  C          0.05548000       0.78586000       0.88811200
    85  H          0.50800800       0.68524900       0.35560000
    86  H          0.50800800       0.31475100       0.85560000
    87  H          0.00800800       0.18524900       0.35560000
    88  H          0.00800800       0.81475100       0.85560000
    89  C          0.86459000       0.61864000       0.55801500
    90  C          0.86459000       0.38136000       0.05801500
    91  C          0.36459000       0.11864000       0.55801500
    92  C          0.36459000       0.88136000       0.05801500
    93  H          0.91069500       0.62891300       0.46917900
    94  H          0.91069500       0.37108700       0.96917900
    95  H          0.41069500       0.12891300       0.46917900
    96  H          0.41069500       0.87108700       0.96917900
    97  C          0.84258000       0.58094000       0.84801500
    98  C          0.84258000       0.41906000       0.34801500
    99  C          0.34258000       0.08094000       0.84801500
   100  C          0.34258000       0.91906000       0.34801500
   101  C          0.58179000       0.80424000       0.47541500
   102  C          0.58179000       0.19576000       0.97541500
   103  C          0.08179000       0.30424000       0.47541500
   104  C          0.08179000       0.69576000       0.97541500
   105  H          0.55355000       0.83773500       0.50647200
   106  H          0.55355000       0.16226500       0.00647200
   107  H          0.05355000       0.33773500       0.50647200
   108  H          0.05355000       0.66226500       0.00647200
   109  C          0.68951000       0.79694000       0.47651600
   110  C          0.68951000       0.20306000       0.97651600
   111  C          0.18951000       0.29694000       0.47651600
   112  C          0.18951000       0.70306000       0.97651600
   113  H          0.73765500       0.82567900       0.50540400
   114  H          0.73765500       0.17432100       0.00540400
   115  H          0.23765500       0.32567900       0.50540400
   116  H          0.23765500       0.67432100       0.00540400
   117  C          0.90928000       0.59534000       0.72051500
   118  C          0.90928000       0.40466000       0.22051500
   119  C          0.40928000       0.09534000       0.72051500
   120  C          0.40928000       0.90466000       0.22051500
   121  H          0.98473700       0.58964800       0.74179600
   122  H          0.98473700       0.41035200       0.24179600
   123  H          0.48473700       0.08964800       0.74179600
   124  H          0.48473700       0.91035200       0.24179600
   125  C          0.68979000       0.61124000       0.65621600
   126  C          0.68979000       0.38876000       0.15621600
   127  C          0.18979000       0.11124000       0.65621600
   128  C          0.18979000       0.88876000       0.15621600
   129  H          0.61392500       0.61599000       0.63462000
   130  H          0.61392500       0.38401000       0.13462000
   131  H          0.11392500       0.11599000       0.63462000
   132  H          0.11392500       0.88401000       0.13462000
   133  C          0.70751000       0.65375000       0.35411500
   134  C          0.70751000       0.34625000       0.85411500
   135  C          0.20751000       0.15375000       0.35411500
   136  C          0.20751000       0.84625000       0.85411500
   137  H          0.64966300       0.63114100       0.29320300
   138  H          0.64966300       0.36885900       0.79320300
   139  H          0.14966300       0.13114100       0.29320300
   140  H          0.14966300       0.86885900       0.79320300
   141  H          0.76391000       0.65806000       0.26960800
   142  H          0.76391000       0.34194000       0.76960800
   143  H          0.26391000       0.15806000       0.26960800
   144  H          0.26391000       0.84194000       0.76960800
   145  C          0.73229000       0.58905000       0.81821700
   146  C          0.73229000       0.41095000       0.31821700
   147  C          0.23229000       0.08905000       0.81821700
   148  C          0.23229000       0.91095000       0.31821700
   149  H          0.68641000       0.57935600       0.90852000
   150  H          0.68641000       0.42064400       0.40852000
   151  H          0.18641000       0.07935600       0.90852000
   152  H          0.18641000       0.92064400       0.40852000
