data_JOJGAU
_symmetry_space_group_name_H-M    'P1'
_symmetry_Int_Tables_number       1
loop_
_symmetry_equiv_pos_site_id
_symmetry_equiv_pos_as_xyz
1 x,y,z
_cell_length_a                   13.32709
_cell_length_b                   13.88105
_cell_length_c                   13.85418
_cell_angle_alpha                90.0
_cell_angle_beta                 116.9168
_cell_angle_gamma                90.0
loop_
_atom_site_label
_atom_site_type_symbol
_atom_site_fract_x
_atom_site_fract_y
_atom_site_fract_z
     1  I          0.97458500       0.08560300       0.61526400
     2  I          0.02541500       0.58560300       0.88473600
     3  I          0.02541500       0.91439700       0.38473600
     4  I          0.97458500       0.41439700       0.11526400
     5  Br         0.34843100       0.41452700       0.05965900
     6  Br         0.65156900       0.91452700       0.44034100
     7  Br         0.65156900       0.58547300       0.94034100
     8  Br         0.34843100       0.08547300       0.55965900
     9  N          0.90756000       0.35064000       0.43645000
    10  N          0.09244000       0.85064000       0.06355000
    11  N          0.09244000       0.64936000       0.56355000
    12  N          0.90756000       0.14936000       0.93645000
    13  C          0.97537000       0.19805000       0.51455000
    14  C          0.02463000       0.69805000       0.98545000
    15  C          0.02463000       0.80195000       0.48545000
    16  C          0.97537000       0.30195000       0.01455000
    17  C          0.04887000       0.27345000       0.40466000
    18  C          0.95113000       0.77345000       0.09534000
    19  C          0.95113000       0.72655000       0.59534000
    20  C          0.04887000       0.22655000       0.90466000
    21  H          0.09746500       0.27321900       0.37135800
    22  H          0.90253500       0.77321900       0.12864200
    23  H          0.90253500       0.72678100       0.62864200
    24  H          0.09746500       0.22678100       0.87135800
    25  C          0.90577000       0.27544000       0.49815000
    26  C          0.09423000       0.77544000       0.00185000
    27  C          0.09423000       0.72456000       0.50185000
    28  C          0.90577000       0.22456000      -0.00185000
    29  H          0.85588900       0.27637000       0.53005300
    30  H          0.14411100       0.77637000       0.96994700
    31  H          0.14411100       0.72363000       0.46994700
    32  H          0.85588900       0.22363000       0.03005300
    33  C          0.04607000       0.19615000       0.46606000
    34  C          0.95393000       0.69615000       0.03394000
    35  C          0.95393000       0.80385000       0.53394000
    36  C          0.04607000       0.30385000       0.96606000
    37  H          0.09254400       0.14164500       0.47498700
    38  H          0.90745600       0.64164500       0.02501300
    39  H          0.90745600       0.85835500       0.52501300
    40  H          0.09254400       0.35835500       0.97498700
    41  C          0.83587000       0.43565000       0.42376000
    42  C          0.16413000       0.93565000       0.07624000
    43  C          0.16413000       0.56435000       0.57624000
    44  C          0.83587000       0.06435000       0.92376000
    45  H          0.86912300       0.49276100       0.40645400
    46  H          0.13087700      -0.00723900       0.09354600
    47  H          0.13087700       0.50723900       0.59354600
    48  H          0.86912300       0.00723900       0.90645400
    49  H          0.83317700       0.44828600       0.49291300
    50  H          0.16682300       0.94828600       0.00708700
    51  H          0.16682300       0.55171400       0.50708700
    52  H          0.83317700       0.05171400      -0.00708700
    53  C          0.71738000       0.42074000       0.33496000
    54  C          0.28262000       0.92074000       0.16504000
    55  C          0.28262000       0.57926000       0.66504000
    56  C          0.71738000       0.07926000       0.83496000
    57  C          0.62758000       0.41644000       0.35956000
    58  C          0.37242000       0.91644000       0.14044000
    59  C          0.37242000       0.58356000       0.64044000
    60  C          0.62758000       0.08356000       0.85956000
    61  H          0.64162600       0.41598400       0.43317100
    62  H          0.35837400       0.91598400       0.06682900
    63  H          0.35837400       0.58401600       0.56682900
    64  H          0.64162600       0.08401600       0.93317100
    65  C          0.51838000       0.41274000       0.27927000
    66  C          0.48162000       0.91274000       0.22073000
    67  C          0.48162000       0.58726000       0.72073000
    68  C          0.51838000       0.08726000       0.77927000
    69  H          0.45775700       0.41012400       0.29756100
    70  H          0.54224300       0.91012400       0.20243900
    71  H          0.54224300       0.58987600       0.70243900
    72  H          0.45775700       0.08987600       0.79756100
    73  C          0.49668000       0.41275000       0.17197000
    74  C          0.50332000       0.91275000       0.32803000
    75  C          0.50332000       0.58725000       0.82803000
    76  C          0.49668000       0.08725000       0.67197000
    77  C          0.69409000       0.41795000       0.22606000
    78  C          0.30591000       0.91795000       0.27394000
    79  C          0.30591000       0.58205000       0.77394000
    80  C          0.69409000       0.08205000       0.72606000
    81  H          0.75425700       0.41826800       0.20719900
    82  H          0.24574300       0.91826800       0.29280100
    83  H          0.24574300       0.58173200       0.79280100
    84  H          0.75425700       0.08173200       0.70719900
    85  C          0.97957000       0.35075000       0.39276000
    86  C          0.02043000       0.85075000       0.10724000
    87  C          0.02043000       0.64925000       0.60724000
    88  C          0.97957000       0.14925000       0.89276000
    89  H          0.98258300       0.40526100       0.35272600
    90  H          0.01741700       0.90526100       0.14727400
    91  H          0.01741700       0.59473900       0.64727400
    92  H          0.98258300       0.09473900       0.85272600
    93  C          0.58619000       0.41475000       0.14667000
    94  C          0.41381000       0.91475000       0.35333000
    95  C          0.41381000       0.58525000       0.85333000
    96  C          0.58619000       0.08525000       0.64667000
    97  H          0.57183400       0.41384700       0.07288700
    98  H          0.42816600       0.91384700       0.42711300
    99  H          0.42816600       0.58615300       0.92711300
   100  H          0.57183400       0.08615300       0.57288700
   101  I          0.76301500       0.12510400       0.20716400
   102  I          0.23698500       0.62510400       0.29283600
   103  I          0.23698500       0.87489600       0.79283600
   104  I          0.76301500       0.37489600       0.70716400
   105  I          0.25046500       0.18080300       0.22342400
   106  I          0.74953500       0.68080300       0.27657600
   107  I          0.74953500       0.81919700       0.77657600
   108  I          0.25046500       0.31919700       0.72342400
   109  F          0.70004000       0.16903000       0.39884000
   110  F          0.29996000       0.66903000       0.10116000
   111  F          0.29996000       0.83097000       0.60116000
   112  F          0.70004000       0.33097000       0.89884000
   113  F          0.31024000       0.14733000       0.02664000
   114  F          0.68976000       0.64733000       0.47336000
   115  F          0.68976000       0.85267000       0.97336000
   116  F          0.31024000       0.35267000       0.52664000
   117  F          0.50565000       0.19403000       0.40493000
   118  F          0.49435000       0.69403000       0.09507000
   119  F          0.49435000       0.80597000       0.59507000
   120  F          0.50565000       0.30597000       0.90493000
   121  F          0.50405000       0.12304000       0.01934000
   122  F          0.49595000       0.62304000       0.48066000
   123  F          0.49595000       0.87696000       0.98066000
   124  F          0.50405000       0.37696000       0.51934000
   125  C          0.40847000       0.15505000       0.11996000
   126  C          0.59153000       0.65505000       0.38004000
   127  C          0.59153000       0.84495000       0.88004000
   128  C          0.40847000       0.34495000       0.61996000
   129  C          0.60947000       0.14645000       0.20857000
   130  C          0.39053000       0.64645000       0.29143000
   131  C          0.39053000       0.85355000       0.79143000
   132  C          0.60947000       0.35355000       0.70857000
   133  C          0.50217000       0.17724000       0.30776000
   134  C          0.49783000       0.67724000       0.19224000
   135  C          0.49783000       0.82276000       0.69224000
   136  C          0.50217000       0.32276000       0.80776000
   137  C          0.60397000       0.16395000       0.30556000
   138  C          0.39603000       0.66395000       0.19444000
   139  C          0.39603000       0.83605000       0.69444000
   140  C          0.60397000       0.33605000       0.80556000
   141  C          0.40057000       0.17185000       0.21316000
   142  C          0.59943000       0.67185000       0.28684000
   143  C          0.59943000       0.82815000       0.78684000
   144  C          0.40057000       0.32815000       0.71316000
   145  C          0.50558000       0.14165000       0.11576000
   146  C          0.49442000       0.64165000       0.38424000
   147  C          0.49442000       0.85835000       0.88424000
   148  C          0.50558000       0.35835000       0.61576000
   149  Br         0.01154700       0.08929400       0.21766600
   150  Br        -0.01154700       0.58929400       0.28233400
   151  Br        -0.01154700       0.91070600       0.78233400
   152  Br         0.01154700       0.41070600       0.71766600
