data_JOJLAW
_symmetry_space_group_name_H-M    'P1'
_symmetry_Int_Tables_number       1
loop_
_symmetry_equiv_pos_site_id
_symmetry_equiv_pos_as_xyz
1 x,y,z
_cell_length_a                   7.6383
_cell_length_b                   9.7745
_cell_length_c                   17.0026
_cell_angle_alpha                91.082
_cell_angle_beta                 95.862
_cell_angle_gamma                106.242
loop_
_atom_site_label
_atom_site_type_symbol
_atom_site_fract_x
_atom_site_fract_y
_atom_site_fract_z
     1  O          0.56803000       0.29302000       0.17287100
     2  O          0.43197000       0.70698000       0.82712900
     3  C          0.44046000       0.29674000       0.22782000
     4  C          0.55954000       0.70326000       0.77218000
     5  H          0.66110000       0.30260000       0.21690000
     6  H          0.33890000       0.69740000       0.78310000
     7  H          0.47930000       0.38440000       0.25830000
     8  H          0.52070000       0.61560000       0.74170000
     9  H          0.32300000       0.28800000       0.19940000
    10  H          0.67700000       0.71200000       0.80060000
    11  H          0.43050000       0.21970000       0.26200000
    12  H          0.56950000       0.78030000       0.73800000
    13  N          0.27823000       0.25222000       0.90339000
    14  N          0.72177000       0.74778000       0.09661000
    15  N          0.42843000       0.30372000       0.01921000
    16  N          0.57157000       0.69628000       0.98079000
    17  C          0.18504000       0.94277000       0.92608000
    18  C          0.81496000       0.05723000       0.07392000
    19  C          0.26873000       0.04443000       0.98669000
    20  C          0.73127000       0.95557000       0.01331000
    21  C          0.29714000      -0.00083000       0.06242000
    22  C          0.70286000       0.00083000       0.93758000
    23  C          0.24095000       0.85487000       0.07662000
    24  C          0.75905000       0.14513000       0.92338000
    25  C          0.15604000       0.75537000       0.01692000
    26  C          0.84396000       0.24463000       0.98308000
    27  C          0.12994000       0.79987000       0.94138000
    28  C          0.87006000       0.20013000       0.05862000
    29  C          0.32343000       0.19543000       0.97039000
    30  C          0.67657000       0.80457000       0.02961000
    31  C          0.35294000       0.39823000       0.90879000
    32  C          0.64706000       0.60177000       0.09121000
    33  C          0.44803000       0.43222000       0.98109000
    34  C          0.55197000       0.56778000       0.01891000
    35  H          0.36160000       0.07760000       0.10800000
    36  H          0.63840000       0.92240000       0.89200000
    37  H          0.26720000       0.83020000       0.12750000
    38  H          0.73280000       0.16980000       0.87250000
    39  H          0.12260000       0.64260000       0.02850000
    40  H          0.87740000       0.35740000       0.97150000
    41  H          0.06110000       0.73120000       0.89920000
    42  H          0.93890000       0.26880000       0.10080000
    43  H          0.17240000       0.97190000       0.87100000
    44  H          0.82760000       0.02810000       0.12900000
    45  H          0.33720000       0.46040000       0.86570000
    46  H          0.66280000       0.53960000       0.13430000
    47  H          0.19950000       0.20200000       0.86060000
    48  H          0.80050000       0.79800000       0.13940000
    49  H          0.48770000       0.29520000       0.07440000
    50  H          0.51230000       0.70480000       0.92560000
    51  N          0.57563000       0.67463000       0.27991000
    52  N          0.42437000       0.32537000       0.72009000
    53  N          0.02613000       0.52852000       0.16221000
    54  N          0.97387000       0.47148000       0.83779000
    55  N          0.58487000       0.63222000       0.58211000
    56  N          0.41513000       0.36778000       0.41789000
    57  N          0.13073000       0.74672000       0.71271000
    58  N          0.86927000       0.25328000       0.28729000
    59  C          0.11504000       0.57283000       0.22101000
    60  C          0.88496000       0.42717000       0.77899000
    61  C          0.42184000       0.65393000       0.28751000
    62  C          0.57816000       0.34607000       0.71249000
    63  C          0.23003000       0.62572000       0.29251000
    64  C          0.76997000       0.37428000       0.70749000
    65  C          0.15733000       0.64672000       0.36291000
    66  C          0.84267000       0.35328000       0.63709000
    67  C          0.96397000       0.62062000       0.36511000
    68  C          0.03603000       0.37938000       0.63489000
    69  C          0.27293000       0.68952000       0.43611000
    70  C          0.72707000       0.31048000       0.56389000
    71  C          0.20313000       0.70392000       0.50461000
    72  C          0.79687000       0.29608000       0.49539000
    73  C          0.89217000       0.63452000       0.43321000
    74  C          0.10783000       0.36548000       0.56679000
    75  C          0.00923000       0.67712000       0.50651000
    76  C         -0.00923000       0.32288000       0.49349000
    77  C          0.93557000       0.68912000       0.57721000
    78  C          0.06443000       0.31088000       0.42279000
    79  C          0.74076000       0.65843000       0.57991000
    80  C          0.25924000       0.34157000       0.42009000
    81  C          0.04523000       0.72272000       0.65171000
    82  C          0.95477000       0.27728000       0.34829000
    83  H          0.28340000       0.72850000       0.55410000
    84  H          0.71660000       0.27150000       0.44590000
    85  H          0.75710000       0.62000000       0.43620000
    86  H          0.24290000       0.38000000       0.56380000
    87  H          0.87840000       0.58860000       0.31580000
    88  H          0.12160000       0.41140000       0.68420000
    89  H          0.40100000       0.70810000       0.43760000
    90  H          0.59900000       0.29190000       0.56240000
    91  N          0.50703000       0.01602000       0.35631000
    92  N          0.49297000       0.98398000       0.64369000
    93  N          0.96927000       0.88862000       0.22561000
    94  N          0.03073000       0.11138000       0.77439000
    95  C          0.88617000       0.95722000       0.42901000
    96  C          0.11383000       0.04278000       0.57099000
    97  C          0.19063000       0.02832000       0.50381000
    98  C          0.80937000       0.97168000       0.49619000
    99  C          0.08043000      -0.01398000       0.42981000
   100  C          0.91957000       0.01398000       0.57019000
   101  C          0.16073000       0.96762000       0.36051000
   102  C          0.83927000       0.03238000       0.63949000
   103  C          0.35154000      -0.00497000       0.35911000
   104  C          0.64846000       0.00497000       0.64089000
   105  C          0.05213000       0.92442000       0.28631000
   106  C          0.94787000       0.07558000       0.71369000
   107  H          0.80440000       0.93040000       0.37870000
   108  H          0.19560000       0.06960000       0.62130000
   109  H          0.32470000       0.04720000       0.50690000
   110  H          0.67530000       0.95280000       0.49310000
