data_JOJREJ01
_symmetry_space_group_name_H-M    'P1'
_symmetry_Int_Tables_number       1
loop_
_symmetry_equiv_pos_site_id
_symmetry_equiv_pos_as_xyz
1 x,y,z
_cell_length_a                   7.58765
_cell_length_b                   24.60167
_cell_length_c                   15.37229
_cell_angle_alpha                90.0
_cell_angle_beta                 125.2519
_cell_angle_gamma                90.0
loop_
_atom_site_label
_atom_site_type_symbol
_atom_site_fract_x
_atom_site_fract_y
_atom_site_fract_z
     1  I          0.29502600       0.37179200       0.38227200
     2  I          0.70497400       0.87179200       0.11772800
     3  I          0.70497400       0.62820800       0.61772800
     4  I          0.29502600       0.12820800       0.88227200
     5  F          0.49296000       0.41951130       0.61832000
     6  F          0.50704000       0.91951130       0.88168000
     7  F          0.50704000       0.58048870       0.38168000
     8  F          0.49296000       0.08048870       0.11832000
     9  F          0.65157000       0.51582130       0.70562000
    10  F          0.34843000       0.01582130       0.79438000
    11  F          0.34843000       0.48417870       0.29438000
    12  F          0.65157000       0.98417870       0.20562000
    13  C          0.49508000       0.45896180       0.55783000
    14  C          0.50492000       0.95896180       0.94217000
    15  C          0.50492000       0.54103820       0.44217000
    16  C          0.49508000       0.04103820       0.05783000
    17  C          0.41428000       0.44855180       0.45254000
    18  C          0.58572000       0.94855180       0.04746000
    19  C          0.58572000       0.55144820       0.54746000
    20  C          0.41428000       0.05144820       0.95254000
    21  C          0.57818000       0.50887190       0.60413000
    22  C          0.42182000       0.00887190       0.89587000
    23  C          0.42182000       0.49112810       0.39587000
    24  C          0.57818000       0.99112810       0.10413000
    25  I          0.10836500       0.24596200       0.26257200
    26  I          0.89163500       0.74596200       0.23742800
    27  I          0.89163500       0.75403800       0.73742800
    28  I          0.10836500       0.25403800       0.76257200
    29  I          0.83095600       0.25891200       0.97552200
    30  I          0.16904400       0.75891200       0.52447800
    31  I          0.16904400       0.74108800       0.02447800
    32  I          0.83095600       0.24108800       0.47552200
    33  I          0.62485400       0.04880200       0.41508400
    34  I          0.37514600       0.54880200       0.08491600
    35  I          0.37514600       0.95119800       0.58491600
    36  I          0.62485400       0.45119800       0.91508400
    37  N          0.55676000       0.20506160       0.65633000
    38  N          0.44324000       0.70506160       0.84367000
    39  N          0.44324000       0.79493840       0.34367000
    40  N          0.55676000       0.29493840       0.15633000
    41  C          0.66198000       0.25599190       0.80953000
    42  C          0.33802000       0.75599190       0.69047000
    43  C          0.33802000       0.74400810       0.19047000
    44  C          0.66198000       0.24400810       0.30953000
    45  C          0.66627000       0.20876190       0.76254000
    46  C          0.33373000       0.70876190       0.73746000
    47  C          0.33373000       0.79123810       0.23746000
    48  C          0.66627000       0.29123810       0.26254000
    49  H          0.74751400       0.17853400       0.80576200
    50  H          0.25248600       0.67853400       0.69423800
    51  H          0.25248600       0.82146600       0.19423800
    52  H          0.74751400       0.32146600       0.30576200
    53  C          0.54758000       0.30032000       0.74544000
    54  C          0.45242000       0.80032000       0.75456000
    55  C          0.45242000       0.69968000       0.25456000
    56  C          0.54758000       0.19968000       0.24544000
    57  H          0.54317200       0.33332600       0.77603600
    58  H          0.45682800       0.83332600       0.72396400
    59  H          0.45682800       0.66667400       0.22396400
    60  H          0.54317200       0.16667400       0.27603600
    61  C          0.33228000       0.12541190       0.55944000
    62  C          0.66772000       0.62541190       0.94056000
    63  C          0.66772000       0.87458810       0.44056000
    64  C          0.33228000       0.37458810       0.05944000
    65  C          0.44739000       0.24742000       0.59344000
    66  C          0.55261000       0.74742000       0.90656000
    67  C          0.55261000       0.75258000       0.40656000
    68  C          0.44739000       0.25258000       0.09344000
    69  H          0.37419000       0.24428700       0.51850200
    70  H          0.62581000       0.74428700       0.98149800
    71  H          0.62581000       0.75571300       0.48149800
    72  H          0.37419000       0.25571300       0.01850200
    73  C          0.93282000       0.07982000       0.47664000
    74  C          0.06718000       0.57982000       0.02336000
    75  C          0.06718000       0.92018000       0.52336000
    76  C          0.93282000       0.42018000       0.97664000
    77  C          0.44048000       0.29562000       0.63704000
    78  C          0.55952000       0.79562000       0.86296000
    79  C          0.55952000       0.70438000       0.36296000
    80  C          0.44048000       0.20438000       0.13704000
    81  H          0.36158600       0.32566300       0.59211800
    82  H          0.63841400       0.82566300       0.90788200
    83  H          0.63841400       0.67433700       0.40788200
    84  H          0.36158600       0.17433700       0.09211800
    85  C          0.27299000       0.10912000       0.62534000
    86  C          0.72701000       0.60912000       0.87466000
    87  C          0.72701000       0.89088000       0.37466000
    88  C          0.27299000       0.39088000       0.12534000
    89  H          0.37189800       0.11367700       0.70010300
    90  H          0.62810200       0.61367700       0.79989700
    91  H          0.62810200       0.88632300       0.29989700
    92  H          0.37189800       0.38632300       0.20010300
    93  C          0.54829000       0.15222000       0.60634000
    94  C          0.45171000       0.65222000       0.89366000
    95  C          0.45171000       0.84778000       0.39366000
    96  C          0.54829000       0.34778000       0.10634000
    97  H          0.66485400       0.12801600       0.66059100
    98  H          0.33514600       0.62801600       0.83940900
    99  H          0.33514600       0.87198400       0.33940900
   100  H          0.66485400       0.37198400       0.16059100
   101  H          0.57040200       0.15848600       0.54967300
   102  H          0.42959800       0.65848600       0.95032700
   103  H          0.42959800       0.84151400       0.45032700
   104  H          0.57040200       0.34151400       0.04967300
   105  C          0.07449000       0.08642000       0.58524000
   106  C          0.92551000       0.58642000       0.91476000
   107  C          0.92551000       0.91358000       0.41476000
   108  C          0.07449000       0.41358000       0.08524000
   109  H          0.03559900       0.07549300       0.63138300
   110  H          0.96440100       0.57549300       0.86861700
   111  H          0.96440100       0.92450700       0.36861700
   112  H          0.03559900       0.42450700       0.13138300
   113  C         -0.01169000       0.09442000       0.40854000
   114  C          0.01169000       0.59442000       0.09146000
   115  C          0.01169000       0.90558000       0.59146000
   116  C         -0.01169000       0.40558000       0.90854000
   117  H          0.89111500       0.08851300       0.33394200
   118  H          0.10888500       0.58851300       0.16605800
   119  H          0.10888500       0.91148700       0.66605800
   120  H          0.89111500       0.41148700       0.83394200
   121  C          0.18769000       0.11772000       0.45084000
   122  C          0.81231000       0.61772000       0.04916000
   123  C          0.81231000       0.88228000       0.54916000
   124  C          0.18769000       0.38228000       0.95084000
   125  H          0.22618700       0.12861100       0.40459200
   126  H          0.77381300       0.62861100       0.09540800
   127  H          0.77381300       0.87138900       0.59540800
   128  H          0.22618700       0.37138900       0.90459200
   129  I          0.01399600       0.11418200       0.14078300
   130  I         -0.01399600       0.61418200       0.35921700
   131  I         -0.01399600       0.88581800       0.85921700
   132  I          0.01399600       0.38581800       0.64078300
   133  F          0.83026000       0.09497130       0.89723000
   134  F          0.16974000       0.59497130       0.60277000
   135  F          0.16974000       0.90502870       0.10277000
   136  F          0.83026000       0.40502870       0.39723000
   137  F          0.16226000       0.98844870       0.20912000
   138  F          0.83774000       0.48844870       0.29088000
   139  F          0.83774000       0.01155130       0.79088000
   140  F          0.16226000       0.51155130       0.70912000
   141  C          0.08218000      -0.00412000       0.10564000
   142  C          0.91782000       0.49588000       0.39436000
   143  C          0.91782000       0.00412000       0.89436000
   144  C          0.08218000       0.50412000       0.60564000
   145  C          0.91438000       0.04824190       0.94974000
   146  C          0.08562000       0.54824190       0.55026000
   147  C          0.08562000       0.95175810       0.05026000
   148  C          0.91438000       0.45175810       0.44974000
   149  C         -0.00122000       0.04539190       0.05714000
   150  C          0.00122000       0.54539190       0.44286000
   151  C          0.00122000       0.95460810       0.94286000
   152  C         -0.00122000       0.45460810       0.55714000
