data_JOJSOU
_symmetry_space_group_name_H-M    'P1'
_symmetry_Int_Tables_number       1
loop_
_symmetry_equiv_pos_site_id
_symmetry_equiv_pos_as_xyz
1 x,y,z
_cell_length_a                   7.45524
_cell_length_b                   24.49657
_cell_length_c                   15.31028
_cell_angle_alpha                90.0
_cell_angle_beta                 125.3398
_cell_angle_gamma                90.0
loop_
_atom_site_label
_atom_site_type_symbol
_atom_site_fract_x
_atom_site_fract_y
_atom_site_fract_z
     1  I          0.28771400       0.87221200       0.37646200
     2  I          0.71228600       0.37221200       0.12353800
     3  I          0.71228600       0.12778800       0.62353800
     4  I          0.28771400       0.62778800       0.87646200
     5  F          0.49373000       0.91747800       0.61637160
     6  F          0.50627000       0.41747800       0.88362840
     7  F          0.50627000       0.08252200       0.38362840
     8  F          0.49373000       0.58252200       0.11637160
     9  F          0.65914000       0.01318800       0.70854160
    10  F          0.34086000       0.51318800       0.79145840
    11  F          0.34086000       0.98681200       0.29145840
    12  F          0.65914000       0.48681200       0.20854160
    13  C          0.49486000       0.95778120       0.55613000
    14  C          0.50514000       0.45778120       0.94387000
    15  C          0.50514000       0.04221880       0.44387000
    16  C          0.49486000       0.54221880       0.05613000
    17  C          0.58325000       0.00737130       0.60553000
    18  C          0.41675000       0.50737130       0.89447000
    19  C          0.41675000       0.99262870       0.39447000
    20  C          0.58325000       0.49262870       0.10553000
    21  C          0.41075000       0.94902120       0.45053000
    22  C          0.58925000       0.44902120       0.04947000
    23  C          0.58925000       0.05097880       0.54947000
    24  C          0.41075000       0.55097880       0.95053000
    25  I          0.10985400       0.74628200       0.25886200
    26  I          0.89014600       0.24628200       0.24113800
    27  I          0.89014600       0.25371800       0.74113800
    28  I          0.10985400       0.75371800       0.75886200
    29  I          0.83208400       0.75999200       0.97279200
    30  I          0.16791600       0.25999200       0.52720800
    31  I          0.16791600       0.24000800       0.02720800
    32  I          0.83208400       0.74000800       0.47279200
    33  Br         0.63062300       0.55366200       0.40166400
    34  Br         0.36937700       0.05366200       0.09833600
    35  Br         0.36937700       0.44633800       0.59833600
    36  Br         0.63062300       0.94633800       0.90166400
    37  N          0.56344000       0.70142110       0.65582000
    38  N          0.43656000       0.20142110       0.84418000
    39  N          0.43656000       0.29857890       0.34418000
    40  N          0.56344000       0.79857890       0.15582000
    41  C          0.66575000       0.75544130       0.80663000
    42  C          0.33425000       0.25544130       0.69337000
    43  C          0.33425000       0.24455870       0.19337000
    44  C          0.66575000       0.74455870       0.30663000
    45  C          0.67045000       0.70677130       0.76203000
    46  C          0.32955000       0.20677130       0.73797000
    47  C          0.32955000       0.29322870       0.23797000
    48  C          0.67045000       0.79322870       0.26203000
    49  H          0.75067100       0.67669000       0.80733000
    50  H          0.24932900       0.17669000       0.69267000
    51  H          0.24932900       0.32331000       0.19267000
    52  H          0.75067100       0.82331000       0.30733000
    53  C          0.54945000       0.79889130       0.73953000
    54  C          0.45055000       0.29889130       0.76047000
    55  C          0.45055000       0.20110870       0.26047000
    56  C          0.54945000       0.70110870       0.23953000
    57  H          0.54179300       0.83255300       0.76804400
    58  H          0.45820700       0.33255300       0.73195600
    59  H          0.45820700       0.16744700       0.23195600
    60  H          0.54179300       0.66744700       0.26804400
    61  C          0.45126000       0.74379130       0.58863000
    62  C          0.54874000       0.24379130       0.91137000
    63  C          0.54874000       0.25620870       0.41137000
    64  C          0.45126000       0.75620870       0.08863000
    65  H          0.37829500       0.73963500       0.51362700
    66  H          0.62170500       0.23963500       0.98637300
    67  H          0.62170500       0.26036500       0.48637300
    68  H          0.37829500       0.76036500       0.01362700
    69  C          0.33736000       0.62090120       0.55673000
    70  C          0.66264000       0.12090120       0.94327000
    71  C          0.66264000       0.37909880       0.44327000
    72  C          0.33736000       0.87909880       0.05673000
    73  C          0.44396000       0.79284130       0.63023000
    74  C          0.55604000       0.29284130       0.86977000
    75  C          0.55604000       0.20715870       0.36977000
    76  C          0.44396000       0.70715870       0.13023000
    77  H          0.36605300       0.82274400       0.58364700
    78  H          0.63394700       0.32274400       0.91635300
    79  H          0.63394700       0.17725600       0.41635300
    80  H          0.36605300       0.67725600       0.08364700
    81  C          0.55906000       0.64804130       0.60863000
    82  C          0.44094000       0.14804130       0.89137000
    83  C          0.44094000       0.35195870       0.39137000
    84  C          0.55906000       0.85195870       0.10863000
    85  H          0.67496300       0.62401300       0.66539100
    86  H          0.32503700       0.12401300       0.83460900
    87  H          0.32503700       0.37598700       0.33460900
    88  H          0.67496300       0.87598700       0.16539100
    89  H          0.58993900       0.65367500       0.55446800
    90  H          0.41006100       0.15367500       0.94553200
    91  H          0.41006100       0.34632500       0.44553200
    92  H          0.58993900       0.84632500       0.05446800
    93  C          0.19286000       0.61637150       0.44633000
    94  C          0.80714000       0.11637150       0.05367000
    95  C          0.80714000       0.38362850       0.55367000
    96  C          0.19286000       0.88362850       0.94633000
    97  H          0.23699000       0.62826800       0.40237000
    98  H          0.76301000       0.12826800       0.09763000
    99  H          0.76301000       0.37173200       0.59763000
   100  H          0.23699000       0.87173200       0.90237000
   101  C          0.27066000       0.60337150       0.61973000
   102  C          0.72934000       0.10337150       0.88027000
   103  C          0.72934000       0.39662850       0.38027000
   104  C          0.27066000       0.89662850       0.11973000
   105  H          0.36986100       0.60584500       0.69538200
   106  H          0.63013900       0.10584500       0.80461800
   107  H          0.63013900       0.39415500       0.30461800
   108  H          0.36986100       0.89415500       0.19538200
   109  C          0.92194000       0.57884130       0.46423000
   110  C          0.07806000       0.07884130       0.03577000
   111  C          0.07806000       0.42115870       0.53577000
   112  C          0.92194000       0.92115870       0.96423000
   113  C          0.06266000       0.58236150       0.57473000
   114  C          0.93734000       0.08236150       0.92527000
   115  C          0.93734000       0.41763850       0.42527000
   116  C          0.06266000       0.91763850       0.07473000
   117  H          0.01737500       0.57065700       0.61835600
   118  H         -0.01737500       0.07065700       0.88164400
   119  H         -0.01737500       0.42934300       0.38164400
   120  H          0.01737500       0.92934300       0.11835600
   121  C         -0.01606000       0.59458150       0.39943000
   122  C          0.01606000       0.09458150       0.10057000
   123  C          0.01606000       0.40541850       0.60057000
   124  C         -0.01606000       0.90541850       0.89943000
   125  H          0.88609600       0.59068400       0.32387200
   126  H          0.11390400       0.09068400       0.17612800
   127  H          0.11390400       0.40931600       0.67612800
   128  H          0.88609600       0.90931600       0.82387200
   129  I         -0.01790600       0.38372200       0.86088200
   130  I          0.01790600       0.88372200       0.63911800
   131  I          0.01790600       0.61627800       0.13911800
   132  I         -0.01790600       0.11627800       0.36088200
   133  F          0.81394000       0.59414800       0.89284180
   134  F          0.18606000       0.09414800       0.60715820
   135  F          0.18606000       0.40585200       0.10715820
   136  F          0.81394000       0.90585200       0.39284180
   137  F          0.81904000       0.50885800       0.78758170
   138  F          0.18096000       0.00885800       0.71241830
   139  F          0.18096000       0.49114200       0.21241830
   140  F          0.81904000       0.99114200       0.28758170
   141  C         -0.00055000       0.45425120       0.94413000
   142  C          0.00055000       0.95425120       0.55587000
   143  C          0.00055000       0.54574880       0.05587000
   144  C         -0.00055000       0.04574880       0.44413000
   145  C          0.90965000       0.54775120       0.94823000
   146  C          0.09035000       0.04775120       0.55177000
   147  C          0.09035000       0.45224880       0.05177000
   148  C          0.90965000       0.95224880       0.44823000
   149  C          0.90755000       0.50330130       0.89213000
   150  C          0.09245000       0.00330130       0.60787000
   151  C          0.09245000       0.49669870       0.10787000
   152  C          0.90755000      -0.00330130       0.39213000
