data_JOJXEO
_symmetry_space_group_name_H-M    'P1'
_symmetry_Int_Tables_number       1
loop_
_symmetry_equiv_pos_site_id
_symmetry_equiv_pos_as_xyz
1 x,y,z
_cell_length_a                   7.681015
_cell_length_b                   9.196718
_cell_length_c                   9.561819
_cell_angle_alpha                62.663
_cell_angle_beta                 77.033
_cell_angle_gamma                67.863
loop_
_atom_site_label
_atom_site_type_symbol
_atom_site_fract_x
_atom_site_fract_y
_atom_site_fract_z
     1  Cl         0.45986800       0.79335700       0.97910600
     2  Cl         0.54013200       0.20664300       0.02089400
     3  Cl         0.73663100       0.48439700       0.57973800
     4  Cl         0.26336900       0.51560300       0.42026200
     5  O          0.60062000       0.06551190       0.73606170
     6  O          0.39938000       0.93448810       0.26393830
     7  H          0.63920000       0.14120000       0.66370000
     8  H          0.36080000       0.85880000       0.33630000
     9  O          0.87322000       0.07011160       0.30727150
    10  O          0.12678000       0.92988840       0.69272850
    11  H          0.89670000       0.15960000       0.24670000
    12  H          0.10330000       0.84040000       0.75330000
    13  O          0.76192000       0.20845170       0.46369170
    14  O          0.23808000       0.79154830       0.53630830
    15  C          0.57713000       0.79232000       0.80242000
    16  C          0.42287000       0.20768000       0.19758000
    17  C          0.73172000       0.93112000       0.55392190
    18  C          0.26828000       0.06888000       0.44607810
    19  C          0.79033000       0.08292000       0.43762000
    20  C          0.20967000       0.91708000       0.56238000
    21  C          0.63682000       0.93422000       0.69692000
    22  C          0.36318000       0.06578000       0.30308000
    23  C          0.60753000       0.65542000       0.76742000
    24  C          0.39247000       0.34458000       0.23258000
    25  H          0.56520000       0.56310000       0.83820000
    26  H          0.43480000       0.43690000       0.16180000
    27  C          0.76373000       0.79232000       0.51972000
    28  C          0.23627000       0.20768000       0.48028000
    29  H          0.82730000       0.79100000       0.42500000
    30  H          0.17270000       0.20900000       0.57500000
    31  C          0.70173000       0.65612000       0.62542000
    32  C          0.29827000       0.34388000       0.37458000
    33  N          0.04692000       0.64574190       0.89845820
    34  N          0.95308000       0.35425810       0.10154180
    35  C          0.95693000       0.63612000       0.03772000
    36  C          0.04307000       0.36388000       0.96228000
    37  C          0.08793000       0.51412000       0.86048000
    38  C          0.91207000       0.48588000       0.13952000
    39  H          0.14860000       0.52220000       0.76270000
    40  H          0.85140000       0.47780000       0.23730000
    41  C          0.91044000       0.78423000       0.07953000
    42  C          0.08956000       0.21577000       0.92047000
    43  H          0.01680000       0.77450000       0.12390000
    44  H          0.98320000       0.22550000       0.87610000
    45  H          0.80440000       0.78350000       0.15530000
    46  H          0.19560000       0.21650000       0.84470000
    47  H          0.87990000       0.89010000      -0.01350000
    48  H          0.12010000       0.10990000       0.01350000
