data_JOJXIS
_symmetry_space_group_name_H-M    'P1'
_symmetry_Int_Tables_number       1
loop_
_symmetry_equiv_pos_site_id
_symmetry_equiv_pos_as_xyz
1 x,y,z
_cell_length_a                   7.629815
_cell_length_b                   12.7573
_cell_length_c                   15.7943
_cell_angle_alpha                90.0
_cell_angle_beta                 103.643
_cell_angle_gamma                90.0
loop_
_atom_site_label
_atom_site_type_symbol
_atom_site_fract_x
_atom_site_fract_y
_atom_site_fract_z
     1  Cl         0.08828900       0.38944500       0.55334400
     2  Cl         0.41171100       0.88944500       0.94665600
     3  Cl         0.91171100       0.61055500       0.44665600
     4  Cl         0.58828900       0.11055500       0.05334400
     5  Cl         0.24070900       0.15609600       0.84537400
     6  Cl         0.25929100       0.65609600       0.65462600
     7  Cl         0.75929100       0.84390400       0.15462600
     8  Cl         0.74070900       0.34390400       0.34537400
     9  O          0.75028000       0.03497130       0.47846100
    10  O          0.74972000       0.53497130       0.02153900
    11  O          0.24972000       0.96502870       0.52153900
    12  O          0.25028000       0.46502870       0.97846100
    13  H          0.68880000       0.98470000       0.45690000
    14  H          0.81120000       0.48470000       0.04310000
    15  H          0.31120000       0.01530000       0.54310000
    16  H          0.18880000       0.51530000       0.95690000
    17  O          0.02163000      -0.00251140       0.73736110
    18  O          0.47837000       0.49748860       0.76263890
    19  O         -0.02163000       0.00251140       0.26263890
    20  O          0.52163000       0.50251140       0.23736110
    21  H          0.95330000       0.95630000       0.70590000
    22  H          0.54670000       0.45630000       0.79410000
    23  H          0.04670000       0.04370000       0.29410000
    24  H          0.45330000       0.54370000       0.20590000
    25  O          0.81537000       0.92973870       0.59469120
    26  O          0.68463000       0.42973870       0.90530880
    27  O          0.18463000       0.07026130       0.40530880
    28  O          0.31537000       0.57026130       0.09469120
    29  C          0.03233000       0.08642170       0.69303160
    30  C          0.46767000       0.58642170       0.80696840
    31  C          0.96767000       0.91357830       0.30696840
    32  C          0.53233000       0.41357830       0.19303160
    33  C          0.83077000       0.01355180       0.55853160
    34  C          0.66923000       0.51355180       0.94146840
    35  C          0.16923000       0.98644820       0.44146840
    36  C          0.33077000       0.48644820       0.05853160
    37  C          0.06603000       0.27288160       0.60700150
    38  C          0.43397000       0.77288160       0.89299850
    39  C          0.93397000       0.72711840       0.39299850
    40  C          0.56603000       0.22711840       0.10700150
    41  C          0.94487000       0.09955160       0.60506140
    42  C          0.55513000       0.59955160       0.89493860
    43  C          0.05513000       0.90044840       0.39493860
    44  C          0.44487000       0.40044840       0.10506140
    45  C          0.15223000       0.26232180       0.69395150
    46  C          0.34777000       0.76232180       0.80604850
    47  C          0.84777000       0.73767820       0.30604850
    48  C          0.65223000       0.23767820       0.19395150
    49  H          0.22110000       0.31700000       0.72350000
    50  H          0.27890000       0.81700000       0.77650000
    51  H          0.77890000       0.68300000       0.27650000
    52  H          0.72110000       0.18300000       0.22350000
    53  C          0.13493000       0.17011180       0.73637150
    54  C          0.36507000       0.67011180       0.76362850
    55  C          0.86507000       0.82988820       0.26362850
    56  C          0.63493000       0.32988820       0.23637150
    57  C          0.96237000       0.19310170       0.56252150
    58  C          0.53763000       0.69310170       0.93747850
    59  C          0.03763000       0.80689830       0.43747850
    60  C          0.46237000       0.30689830       0.06252150
    61  H          0.90420000       0.20170000       0.50420000
    62  H          0.59580000       0.70170000      -0.00420000
    63  H          0.09580000       0.79830000       0.49580000
    64  H          0.40420000       0.29830000       0.00420000
    65  N          0.04592000       0.61110140       0.89711120
    66  N          0.45408000       0.11110140       0.60288880
    67  N          0.95408000       0.38889860       0.10288880
    68  N          0.54592000       0.88889860       0.39711120
    69  N          0.85582000       0.77493140       0.80627120
    70  N          0.64418000       0.27493140       0.69372880
    71  N          0.14418000       0.22506860       0.19372880
    72  N          0.35582000       0.72506860       0.30627120
    73  C          0.03343000       0.70273170       0.93579140
    74  C          0.46657000       0.20273170       0.56420860
    75  C          0.96657000       0.29726830       0.06420860
    76  C          0.53343000       0.79726830       0.43579140
    77  H          0.09050000       0.71110000      -0.00570000
    78  H          0.40950000       0.21110000       0.50570000
    79  H          0.90950000       0.28890000       0.00570000
    80  H          0.59050000       0.78890000       0.49430000
    81  C          0.96243000       0.59838170       0.81295140
    82  C          0.53757000       0.09838170       0.68704860
    83  C          0.03757000       0.40161830       0.18704860
    84  C          0.46243000       0.90161830       0.31295140
    85  C          0.93773000       0.78540170       0.89101150
    86  C          0.56227000       0.28540170       0.60898850
    87  C          0.06227000       0.21459830       0.10898850
    88  C          0.43773000       0.71459830       0.39101150
    89  C          0.86683000       0.68281170       0.76795140
    90  C          0.63317000       0.18281170       0.73204860
    91  C          0.13317000       0.31718830       0.23204860
    92  C          0.36683000       0.81718830       0.26795140
    93  C         -0.02016000       0.49391190       0.77303170
    94  C          0.52016000      -0.00608810       0.72696830
    95  C          0.02016000       0.50608810       0.22696830
    96  C          0.47984000       0.00608810       0.27303170
    97  H          0.05950000       0.45030000       0.81460000
    98  H          0.44050000       0.95030000       0.68540000
    99  H          0.94050000       0.54970000       0.18540000
   100  H          0.55950000       0.04970000       0.31460000
   101  H          0.02790000       0.50290000       0.72250000
   102  H          0.47210000       0.00290000       0.77750000
   103  H          0.97210000       0.49710000       0.27750000
   104  H          0.52790000      -0.00290000       0.22250000
   105  H          0.86330000       0.46140000       0.75630000
   106  H          0.63670000       0.96140000       0.74370000
   107  H          0.13670000       0.53860000       0.24370000
   108  H          0.36330000       0.03860000       0.25630000
   109  C          0.77124000       0.67482000       0.67313170
   110  C          0.72876000       0.17482000       0.82686830
   111  C          0.22876000       0.32518000       0.32686830
   112  C          0.27124000       0.82518000       0.17313170
   113  H          0.71630000       0.74090000       0.65350000
   114  H          0.78370000       0.24090000       0.84650000
   115  H          0.28370000       0.25910000       0.34650000
   116  H          0.21630000       0.75910000       0.15350000
   117  H          0.67990000       0.62160000       0.66590000
   118  H          0.82010000       0.12160000       0.83410000
   119  H          0.32010000       0.37840000       0.33410000
   120  H          0.17990000       0.87840000       0.16590000
   121  H          0.85660000       0.65680000       0.63950000
   122  H          0.64340000       0.15680000       0.86050000
   123  H          0.14340000       0.34320000       0.36050000
   124  H          0.35660000       0.84320000       0.13950000
   125  C          0.92334000       0.88905190       0.93316180
   126  C          0.57666000       0.38905190       0.56683820
   127  C          0.07666000       0.11094810       0.06683820
   128  C          0.42334000       0.61094810       0.43316180
   129  H         -0.01950000       0.94200000       0.90590000
   130  H          0.51950000       0.44200000       0.59410000
   131  H          0.01950000       0.05800000       0.09410000
   132  H          0.48050000       0.55800000       0.40590000
   133  H         -0.01830000       0.88510000      -0.00600000
   134  H          0.51830000       0.38510000       0.50600000
   135  H          0.01830000       0.11490000       0.00600000
   136  H          0.48170000       0.61490000       0.49400000
   137  H          0.79850000       0.90660000       0.92670000
   138  H          0.70150000       0.40660000       0.57330000
   139  H          0.20150000       0.09340000       0.07330000
   140  H          0.29850000       0.59340000       0.42670000
