data_JOKJEA
_symmetry_space_group_name_H-M    'P1'
_symmetry_Int_Tables_number       1
loop_
_symmetry_equiv_pos_site_id
_symmetry_equiv_pos_as_xyz
1 x,y,z
_cell_length_a                   6.84478
_cell_length_b                   9.329711
_cell_length_c                   11.331213
_cell_angle_alpha                90.4006
_cell_angle_beta                 95.0617
_cell_angle_gamma                109.0558
loop_
_atom_site_label
_atom_site_type_symbol
_atom_site_fract_x
_atom_site_fract_y
_atom_site_fract_z
     1  S          0.35352120       0.43455900       0.35157700
     2  S          0.64647880       0.56544100       0.64842300
     3  S          0.80365110       0.52000900       0.33841700
     4  S          0.19634890       0.47999100       0.66158300
     5  S          0.34905130       0.75163900       0.24752800
     6  S          0.65094870       0.24836100       0.75247200
     7  S          0.80097130       0.84676900       0.22955800
     8  S          0.19902870       0.15323100       0.77044200
     9  C          0.58034000       0.57233000       0.31422000
    10  C          0.41966000       0.42767000       0.68578000
    11  C          0.57874000       0.70503000       0.27003000
    12  C          0.42126000       0.29497000       0.72997000
    13  C          0.80515000       0.23424000       0.39743000
    14  C          0.19485000       0.76576000       0.60257000
    15  H          0.89720000       0.27180000       0.46790000
    16  H          0.10280000       0.72820000       0.53210000
    17  H          0.88490000       0.23640000       0.33150000
    18  H          0.11510000       0.76360000       0.66850000
    19  H          0.71880000       0.13180000       0.40800000
    20  H          0.28120000       0.86820000       0.59200000
    21  C          0.46755000       0.29273000       0.37993000
    22  C          0.53245000       0.70727000       0.62007000
    23  C          0.45976000       0.90714000       0.16313000
    24  C          0.54024000       0.09286000       0.83687000
    25  H          0.37890000       0.95910000       0.12480000
    26  H          0.62110000       0.04090000       0.87520000
    27  C          0.67215000       0.33163000       0.37383000
    28  C          0.32785000       0.66837000       0.62617000
    29  C          0.66096000       0.94924000       0.15483000
    30  C          0.33904000       0.05076000       0.84517000
    31  H          0.72620000       0.03140000       0.11020000
    32  H          0.27380000       0.96860000       0.88980000
    33  C          0.32455000       0.14343000       0.41263000
    34  C          0.67545000       0.85657000       0.58737000
    35  H          0.20970000       0.10800000       0.35260000
    36  H          0.79030000       0.89200000       0.64740000
    37  H          0.27380000       0.15440000       0.48730000
    38  H          0.72620000       0.84560000       0.51270000
    39  H          0.39780000       0.07140000       0.41880000
    40  H          0.60220000       0.92860000       0.58120000
    41  O          0.18384000       0.14822000       0.10402000
    42  O          0.81616000       0.85178000       0.89598000
    43  O         -0.01547000       0.27793000       0.05092000
    44  O          0.01547000       0.72207000       0.94908000
    45  N          0.15514000       0.26123000       0.06422000
    46  N          0.84486000       0.73877000       0.93578000
    47  C          0.53054000       0.37483000       0.05423000
    48  C          0.46946000       0.62517000       0.94577000
    49  H          0.54840000       0.29020000       0.09040000
    50  H          0.45160000       0.70980000       0.90960000
    51  C          0.33544000       0.38603000       0.03062000
    52  C          0.66456000       0.61397000       0.96938000
    53  C          0.30204000       0.50903000       0.97677000
    54  C          0.69796000       0.49097000       0.02323000
    55  H          0.16820000       0.51320000       0.96190000
    56  H          0.83180000       0.48680000       0.03810000
