data_JOLCIY
_symmetry_space_group_name_H-M    'P1'
_symmetry_Int_Tables_number       1
loop_
_symmetry_equiv_pos_site_id
_symmetry_equiv_pos_as_xyz
1 x,y,z
_cell_length_a                   8.07723
_cell_length_b                   7.29863
_cell_length_c                   20.41697
_cell_angle_alpha                90.0
_cell_angle_beta                 90.0
_cell_angle_gamma                90.0
loop_
_atom_site_label
_atom_site_type_symbol
_atom_site_fract_x
_atom_site_fract_y
_atom_site_fract_z
     1  N          0.41604160       0.75000000       0.46732600
     2  N          0.08395840       0.25000000       0.96732600
     3  N          0.58395840       0.25000000       0.53267400
     4  N          0.91604160       0.75000000       0.03267400
     5  C          0.41512000       0.75000000       0.53317700
     6  C          0.08488000       0.25000000       0.03317700
     7  C          0.58488000       0.25000000       0.46682300
     8  C          0.91512000       0.75000000       0.96682300
     9  C          0.56323000       0.75000000       0.56923800
    10  C          0.93677000       0.25000000       0.06923800
    11  C          0.43677000       0.25000000       0.43076200
    12  C          0.06323000       0.75000000       0.93076200
    13  H          0.56070000       0.75000000       0.61570000
    14  H          0.93930000       0.25000000       0.11570000
    15  H          0.43930000       0.25000000       0.38430000
    16  H          0.06070000       0.75000000       0.88430000
    17  C          0.71192000       0.75000000       0.53631900
    18  C          0.78808000       0.25000000       0.03631900
    19  C          0.28808000       0.25000000       0.46368100
    20  C          0.21192000       0.75000000       0.96368100
    21  H          0.81320000       0.75000000       0.55990000
    22  H          0.68680000       0.25000000       0.05990000
    23  H          0.18680000       0.25000000       0.44010000
    24  H          0.31320000       0.75000000       0.94010000
    25  C          0.71272000       0.75000000       0.46882900
    26  C          0.78728000       0.25000000       0.96882900
    27  C          0.28728000       0.25000000       0.53117100
    28  C          0.21272000       0.75000000       0.03117100
    29  H          0.81420000       0.75000000       0.44530000
    30  H          0.68580000       0.25000000       0.94530000
    31  H          0.18580000       0.25000000       0.55470000
    32  H          0.31420000       0.75000000       0.05470000
    33  C          0.56272190       0.75000000       0.43587800
    34  C          0.93727810       0.25000000       0.93587800
    35  C          0.43727810       0.25000000       0.56412200
    36  C          0.06272190       0.75000000       0.06412200
    37  C          0.24913000       0.75000000       0.56554900
    38  C          0.25087000       0.25000000       0.06554900
    39  C          0.75087000       0.25000000       0.43445100
    40  C          0.74913000       0.75000000       0.93445100
    41  C          0.55652000       0.75000000       0.36216800
    42  C          0.94348000       0.25000000       0.86216800
    43  C          0.44348000       0.25000000       0.63783200
    44  C          0.05652000       0.75000000       0.13783200
    45  H          0.49790000       0.64050000       0.34690000
    46  H          0.00210000       0.35950000       0.84690000
    47  H          0.50210000       0.14050000       0.65310000
    48  H         -0.00210000       0.85950000       0.15310000
    49  H          0.50210000       0.35950000       0.65310000
    50  H         -0.00210000       0.64050000       0.15310000
    51  H          0.49790000       0.85950000       0.34690000
    52  H          0.00210000       0.14050000       0.84690000
    53  H          0.66950000       0.75000000       0.34460000
    54  H          0.83050000       0.25000000       0.84460000
    55  H          0.33050000       0.25000000       0.65540000
    56  H          0.16950000       0.75000000       0.15540000
    57  C          0.07513170       0.75000000       0.35383700
    58  C          0.42486830       0.25000000       0.85383700
    59  C          0.92486830       0.25000000       0.64616300
    60  C          0.57513170       0.75000000       0.14616300
    61  N          0.12769120       0.59321130       0.38207500
    62  N          0.37230880       0.40678870       0.88207500
    63  N          0.87230880       0.09321130       0.61792500
    64  N          0.62769120       0.90678870       0.11792500
    65  N          0.87230880       0.40678870       0.61792500
    66  N          0.62769120       0.59321130       0.11792500
    67  N          0.12769120       0.90678870       0.38207500
    68  N          0.37230880       0.09321130       0.88207500
    69  H          0.20711900       0.60120000       0.41077000
    70  H          0.29288100       0.39880000       0.91077000
    71  H          0.79288100       0.10120000       0.58923000
    72  H          0.70711900       0.89880000       0.08923000
    73  H          0.79288100       0.39880000       0.58923000
    74  H          0.70711900       0.60120000       0.08923000
    75  H          0.20711900       0.89880000       0.41077000
    76  H          0.29288100       0.10120000       0.91077000
    77  H          0.10241800       0.48920000       0.36367000
    78  H          0.39758200       0.51080000       0.86367000
    79  H          0.89758200      -0.01080000       0.63633000
    80  H          0.60241800       0.01080000       0.13633000
    81  H          0.89758200       0.51080000       0.63633000
    82  H          0.60241800       0.48920000       0.13633000
    83  H          0.10241800       0.01080000       0.36367000
    84  H          0.39758200      -0.01080000       0.86367000
    85  O          0.97909860       0.75000000       0.30616500
    86  O          0.52090140       0.25000000       0.80616500
    87  O          0.02090140       0.25000000       0.69383500
    88  O          0.47909860       0.75000000       0.19383500
    89  C          0.91814830       0.25000000       0.27760700
    90  C          0.58185170       0.75000000       0.77760700
    91  C          0.08185170       0.75000000       0.72239300
    92  C          0.41814830       0.25000000       0.22239300
    93  N          0.84569880       0.40715130       0.25925500
    94  N          0.65430120       0.59284870       0.75925500
    95  N          0.15430120       0.90715130       0.74074500
    96  N          0.34569880       0.09284870       0.24074500
    97  N          0.15430120       0.59284870       0.74074500
    98  N          0.34569880       0.40715130       0.24074500
    99  N          0.84569880       0.09284870       0.25925500
   100  N          0.65430120       0.90715130       0.75925500
   101  H          0.75018100       0.40220000       0.23887000
   102  H          0.74981900       0.59780000       0.73887000
   103  H          0.24981900       0.90220000       0.76113000
   104  H          0.25018100       0.09780000       0.26113000
   105  H          0.24981900       0.59780000       0.76113000
   106  H          0.25018100       0.40220000       0.26113000
   107  H          0.75018100       0.09780000       0.23887000
   108  H          0.74981900       0.90220000       0.73887000
   109  H          0.88598200       0.51120000       0.27326000
   110  H          0.61401800       0.48880000       0.77326000
   111  H          0.11401800       0.01120000       0.72674000
   112  H          0.38598200      -0.01120000       0.22674000
   113  H          0.11401800       0.48880000       0.72674000
   114  H          0.38598200       0.51120000       0.22674000
   115  H          0.88598200      -0.01120000       0.27326000
   116  H          0.61401800       0.01120000       0.77326000
   117  O          0.05114120       0.25000000       0.31004500
   118  O          0.44885880       0.75000000       0.81004500
   119  O          0.94885880       0.75000000       0.68995500
   120  O          0.55114120       0.25000000       0.18995500
