data_JOTSES
_symmetry_space_group_name_H-M    'P1'
_symmetry_Int_Tables_number       1
loop_
_symmetry_equiv_pos_site_id
_symmetry_equiv_pos_as_xyz
1 x,y,z
_cell_length_a                   7.248501
_cell_length_b                   9.524701
_cell_length_c                   10.694901
_cell_angle_alpha                76.49701
_cell_angle_beta                 74.82201
_cell_angle_gamma                70.01201
loop_
_atom_site_label
_atom_site_type_symbol
_atom_site_fract_x
_atom_site_fract_y
_atom_site_fract_z
     1  S          0.42998400       0.94265300       0.83693300
     2  S          0.57001600       0.05734700       0.16306700
     3  O          0.48915130       0.95841120       0.68857900
     4  O          0.51084870       0.04158880       0.31142100
     5  C          0.65662000       0.85195170       0.89551130
     6  C          0.34338000       0.14804830       0.10448870
     7  C          0.32543000       0.79052000       0.89016190
     8  C          0.67457000       0.20948000       0.10983810
     9  H          0.62430000       0.82201900      -0.01138300
    10  H          0.37570000       0.17798100       0.01138300
    11  H          0.72730000       0.92820000       0.87431800
    12  H          0.27270000       0.07180000       0.12568200
    13  H          0.73530000       0.76720000       0.85051900
    14  H          0.26470000       0.23280000       0.14948100
    15  H          0.20530000       0.81720000       0.85720000
    16  H          0.79470000       0.18280000       0.14280000
    17  H          0.42430000       0.70520000       0.86520000
    18  H          0.57570000       0.29480000       0.13480000
    19  H          0.29240000       0.77730000       0.98420000
    20  H          0.70760000       0.22270000       0.01580000
    21  O         -0.00066150       0.36206130       0.97780100
    22  O          0.00066150       0.63793870       0.02219900
    23  O          0.79280860       0.47788120       0.84492100
    24  O          0.20719140       0.52211880       0.15507900
    25  O          0.00473130       0.10824110       0.77637800
    26  O         -0.00473130       0.89175890       0.22362200
    27  O          0.98796140       0.20016120       0.34561900
    28  O          0.01203860       0.79983880       0.65438100
    29  N          0.20335140       0.09054110       0.53120100
    30  N          0.79664860       0.90945890       0.46879900
    31  N          0.90516140       0.15790110       0.68637900
    32  N          0.09483860       0.84209890       0.31362100
    33  N          0.70639140       0.21476110       0.71816900
    34  N          0.29360860       0.78523890       0.28183100
    35  N          0.40960140       0.32894110       0.64439900
    36  N          0.59039860       0.67105890       0.35560100
    37  N          0.30962140       0.32922110       0.77362100
    38  N          0.69037860       0.67077890       0.22637900
    39  N          0.95924850       0.41327120       0.86975100
    40  N          0.04075150       0.58672880       0.13024900
    41  N          0.89796140       0.20727110       0.46264900
    42  N          0.10203860       0.79272890       0.53735100
    43  N          0.69852140       0.26759110       0.48902100
    44  N          0.30147860       0.73240890       0.51097900
    45  N          0.09025140       0.43405110       0.63345100
    46  N          0.90974860       0.56594890       0.36654900
    47  N          0.32051160       0.41316120       0.43069100
    48  N          0.67948840       0.58683880       0.56930900
    49  C          0.00798160       0.15057120       0.55908110
    50  C         -0.00798160       0.84942880       0.44091890
    51  C          0.61814160       0.26613120       0.61534110
    52  C          0.38185840       0.73386880       0.38465890
    53  C          0.12605160       0.39221120       0.75640110
    54  C          0.87394840       0.60778880       0.24359890
    55  C          0.27421160       0.39239120       0.56156110
    56  C          0.72578840       0.60760880       0.43843890
    57  H          0.26230000       0.09461800       0.45411800
    58  H          0.73770000       0.90538200       0.54588200
    59  H          0.22230000       0.44671900       0.39201700
    60  H          0.77770000       0.55328100       0.60798300
    61  H          0.27030000       0.05420000       0.59291800
    62  H          0.72970000       0.94580000       0.40708200
    63  H          0.43530000       0.36920000       0.39091800
    64  H          0.56470000       0.63080000       0.60908200
