data_JOWZIG
_symmetry_space_group_name_H-M    'P1'
_symmetry_Int_Tables_number       1
loop_
_symmetry_equiv_pos_site_id
_symmetry_equiv_pos_as_xyz
1 x,y,z
_cell_length_a                   7.79325
_cell_length_b                   8.01645
_cell_length_c                   10.25557
_cell_angle_alpha                76.9525
_cell_angle_beta                 77.2405
_cell_angle_gamma                61.9616
loop_
_atom_site_label
_atom_site_type_symbol
_atom_site_fract_x
_atom_site_fract_y
_atom_site_fract_z
     1  C          0.33678170       0.12733170       0.88880880
     2  C          0.66321830       0.87266830       0.11119120
     3  C          0.36496170       0.98260830       0.80450880
     4  C          0.63503830       0.01739170       0.19549120
     5  C          0.53272190       0.82140820       0.62680870
     6  C          0.46727810       0.17859180       0.37319130
     7  H          0.63100000       0.79400000       0.55330000
     8  H          0.36900000       0.20600000       0.44670000
     9  C          0.41455190       0.72845820       0.65596870
    10  C          0.58544810       0.27154180       0.34403130
    11  H          0.43690000       0.63990000       0.60160000
    12  H          0.56310000       0.36010000       0.39840000
    13  C          0.24534180       0.89059830       0.83261870
    14  C          0.75465820       0.10940170       0.16738130
    15  H          0.14510000       0.91990000       0.90490000
    16  H          0.85490000       0.08010000       0.09510000
    17  N          0.50977150       0.94870850       0.70077900
    18  N          0.49022850       0.05129150       0.29922100
    19  N          0.27015160       0.76106850       0.75883890
    20  N          0.72984840       0.23893150       0.24116110
    21  O          0.19013120       0.15907120       0.98454100
    22  O          0.80986880       0.84092880       0.01545900
    23  O          0.44525130       0.20472130       0.86479100
    24  O          0.55474870       0.79527870       0.13520900
    25  H          0.17030000       0.27830000       0.05130000
    26  H          0.82970000       0.72170000       0.94870000
    27  C          0.07148170       0.80407170       0.37119120
    28  C          0.92851830       0.19592830       0.62880880
    29  C          0.10592170       0.66473160       0.27940120
    30  C          0.89407830       0.33526840       0.72059880
    31  C         -0.00204820       0.56085170       0.31566120
    32  C          0.00204820       0.43914830       0.68433880
    33  H          0.90770000       0.57850000       0.39370000
    34  H          0.09230000       0.42150000       0.60630000
    35  C          0.02474180       0.43146180       0.23570130
    36  C          0.97525820       0.56853820       0.76429870
    37  H          0.95330000       0.36070000       0.26170000
    38  H          0.04670000       0.63930000       0.73830000
    39  C          0.25399180       0.50644180       0.08426120
    40  C          0.74600820       0.49355820       0.91573880
    41  H          0.34000000       0.48890000       0.00410000
    42  H          0.66000000       0.51110000      -0.00410000
    43  C          0.23698180       0.63610170       0.16058120
    44  C          0.76301820       0.36389830       0.83941880
    45  H          0.31190000       0.70330000       0.13310000
    46  H          0.68810000       0.29670000       0.86690000
    47  N          0.19425170       0.88233160       0.34973110
    48  N          0.80574830       0.11766840       0.65026890
    49  N          0.15094150       0.40495150       0.12151100
    50  N          0.84905850       0.59504850       0.87848900
    51  O          0.93185130       0.83828130       0.46262900
    52  O          0.06814870       0.16171870       0.53737100
    53  H          0.29930000       0.86020000       0.28401700
    54  H          0.70070000       0.13980000       0.71598300
    55  H          0.16420000       0.97020000       0.40611700
    56  H          0.83580000       0.02980000       0.59388300
