data_JOXBEF
_symmetry_space_group_name_H-M    'P1'
_symmetry_Int_Tables_number       1
loop_
_symmetry_equiv_pos_site_id
_symmetry_equiv_pos_as_xyz
1 x,y,z
_cell_length_a                   6.28222
_cell_length_b                   13.40374
_cell_length_c                   15.52746
_cell_angle_alpha                90.0
_cell_angle_beta                 93.5633
_cell_angle_gamma                90.0
loop_
_atom_site_label
_atom_site_type_symbol
_atom_site_fract_x
_atom_site_fract_y
_atom_site_fract_z
     1  C          0.53722000       0.65109110       0.24396900
     2  C          0.46278000       0.15109110       0.25603100
     3  C          0.46278000       0.34890890       0.75603100
     4  C          0.53722000       0.84890890       0.74396900
     5  C          0.39932000       0.72974100       0.28027800
     6  C          0.60068000       0.22974100       0.21972200
     7  C          0.60068000       0.27025900       0.71972200
     8  C          0.39932000       0.77025900       0.78027800
     9  C          0.09852000       0.77661110       0.34355900
    10  C          0.90148000       0.27661110       0.15644100
    11  C          0.90148000       0.22338890       0.65644100
    12  C          0.09852000       0.72338890       0.84355900
    13  H          0.97290000       0.76090000       0.36930000
    14  H          0.02710000       0.26090000       0.13070000
    15  H          0.02710000       0.23910000       0.63070000
    16  H          0.97290000       0.73910000       0.86930000
    17  C          0.15462000       0.87592120       0.33521100
    18  C          0.84538000       0.37592120       0.16478900
    19  C          0.84538000       0.12407880       0.66478900
    20  C          0.15462000       0.62407880       0.83521100
    21  H          0.06400000       0.92520000       0.35380000
    22  H          0.93600000       0.42520000       0.14620000
    23  H          0.93600000       0.07480000       0.64620000
    24  H          0.06400000       0.57480000       0.85380000
    25  C          0.45832000       0.82892110       0.27394900
    26  C          0.54168000       0.32892110       0.22605100
    27  C          0.54168000       0.17107890       0.72605100
    28  C          0.45832000       0.67107890       0.77394900
    29  H          0.58650000       0.84460000       0.25020000
    30  H          0.41350000       0.34460000       0.24980000
    31  H          0.41350000       0.15540000       0.74980000
    32  H          0.58650000       0.65540000       0.75020000
    33  N          0.21871180       0.70300900       0.31589700
    34  N          0.78128820       0.20300900       0.18410300
    35  N          0.78128820       0.29699100       0.68410300
    36  N          0.21871180       0.79699100       0.81589700
    37  N          0.33612000       0.90241900       0.30097800
    38  N          0.66388000       0.40241900       0.19902200
    39  N          0.66388000       0.09758100       0.69902200
    40  N          0.33612000       0.59758100       0.80097800
    41  O          0.45805180       0.56210800       0.24607800
    42  O          0.54194820       0.06210800       0.25392200
    43  O          0.54194820       0.43789200       0.75392200
    44  O          0.45805180       0.93789200       0.74607800
    45  O          0.70710170       0.67354800       0.21530800
    46  O          0.29289830       0.17354800       0.28469200
    47  O          0.29289830       0.32645200       0.78469200
    48  O          0.70710170       0.82645200       0.71530800
    49  H          0.54540000       0.51320000       0.22271500
    50  H          0.45460000       0.01320000       0.27728500
    51  H          0.45460000       0.48680000       0.77728500
    52  H          0.54540000       0.98680000       0.72271500
    53  C          0.91488000       0.50025110       0.38767900
    54  C          0.08512000       0.00025110       0.11232100
    55  C          0.08512000       0.49974890       0.61232100
    56  C          0.91488000      -0.00025110       0.88767900
    57  C          0.83908000       0.39844110       0.40783900
    58  C          0.16092000       0.89844110       0.09216100
    59  C          0.16092000       0.60155890       0.59216100
    60  C          0.83908000       0.10155890       0.90783900
    61  C          0.64758000       0.38887110       0.44801100
    62  C          0.35242000       0.88887110       0.05198900
    63  C          0.35242000       0.61112890       0.55198900
    64  C          0.64758000       0.11112890       0.94801100
    65  H          0.56830000       0.44540000       0.45950000
    66  H          0.43170000       0.94540000       0.04050000
    67  H          0.43170000       0.55460000       0.54050000
    68  H          0.56830000       0.05460000       0.95950000
    69  C          0.57528000       0.29557110       0.47086900
    70  C          0.42472000       0.79557110       0.02913100
    71  C          0.42472000       0.70442890       0.52913100
    72  C          0.57528000       0.20442890       0.97086900
    73  C          0.69038000       0.21071100       0.45131900
    74  C          0.30962000       0.71071100       0.04868100
    75  C          0.30962000       0.78928900       0.54868100
    76  C          0.69038000       0.28928900       0.95131900
    77  C          0.88068000       0.22077100       0.40954900
    78  C          0.11932000       0.72077100       0.09045100
    79  C          0.11932000       0.77922900       0.59045100
    80  C          0.88068000       0.27922900       0.90954900
    81  C          0.95548000       0.31414110       0.38844900
    82  C          0.04452000       0.81414110       0.11155100
    83  C          0.04452000       0.68585890       0.61155100
    84  C          0.95548000       0.18585890       0.88844900
    85  H          0.08300000       0.32040000       0.36150000
    86  H          0.91700000       0.82040000       0.13850000
    87  H          0.91700000       0.67960000       0.63850000
    88  H          0.08300000       0.17960000       0.86150000
    89  O          0.08722000       0.50131900       0.34271800
    90  O          0.91278000       0.00131900       0.15728200
    91  O          0.91278000       0.49868100       0.65728200
    92  O          0.08722000      -0.00131900       0.84271800
    93  O          0.82878810       0.57619800       0.40995800
    94  O          0.17121190       0.07619800       0.09004200
    95  O          0.17121190       0.42380200       0.59004200
    96  O          0.82878810       0.92380200       0.90995800
    97  O          0.39320830       0.27904900       0.51205800
    98  O          0.60679170       0.77904900       0.98794200
    99  O          0.60679170       0.72095100       0.48794200
   100  O          0.39320830       0.22095100       0.01205800
   101  O          0.61823830       0.11971800       0.47377700
   102  O          0.38176170       0.61971800       0.02622300
   103  O          0.38176170       0.88028200       0.52622300
   104  O          0.61823830       0.38028200       0.97377700
   105  O         -0.01413180       0.13346800       0.39339800
   106  O          0.01413180       0.63346800       0.10660200
   107  O          0.01413180       0.86653200       0.60660200
   108  O         -0.01413180       0.36653200       0.89339800
   109  H          0.12840000       0.56220000       0.33421400
   110  H          0.87160000       0.06220000       0.16578600
   111  H          0.87160000       0.43780000       0.66578600
   112  H          0.12840000       0.93780000       0.83421400
   113  H          0.33560000       0.33581800       0.52941500
   114  H          0.66440000       0.83581800       0.97058500
   115  H          0.66440000       0.66418200       0.47058500
   116  H          0.33560000       0.16418200       0.02941500
   117  H          0.68630000       0.05630000       0.45820000
   118  H          0.31370000       0.55630000       0.04180000
   119  H          0.31370000       0.94370000       0.54180000
   120  H          0.68630000       0.44370000       0.95820000
   121  H          0.08840000       0.14781800       0.35791500
   122  H          0.91160000       0.64781800       0.14208500
   123  H          0.91160000       0.85218200       0.64208500
   124  H          0.08840000       0.35218200       0.85791500
   125  O          0.76408000       0.93088900       0.45333900
   126  O          0.23592000       0.43088900       0.04666100
   127  O          0.23592000       0.06911100       0.54666100
   128  O          0.76408000       0.56911100       0.95333900
   129  H          0.85650000       0.92310000       0.49510000
   130  H          0.14350000       0.42310000       0.00490000
   131  H          0.14350000       0.07690000       0.50490000
   132  H          0.85650000       0.57690000      -0.00490000
   133  H          0.64740000       0.90380000       0.46570000
   134  H          0.35260000       0.40380000       0.03430000
   135  H          0.35260000       0.09620000       0.53430000
   136  H          0.64740000       0.59620000       0.96570000
