data_JUFFAR
_symmetry_space_group_name_H-M    'P1'
_symmetry_Int_Tables_number       1
loop_
_symmetry_equiv_pos_site_id
_symmetry_equiv_pos_as_xyz
1 x,y,z
_cell_length_a                   13.3737
_cell_length_b                   7.6794
_cell_length_c                   6.9214
_cell_angle_alpha                90.0
_cell_angle_beta                 90.474
_cell_angle_gamma                90.0
loop_
_atom_site_label
_atom_site_type_symbol
_atom_site_fract_x
_atom_site_fract_y
_atom_site_fract_z
     1  Cl         0.62241200       0.88715400       0.40727400
     2  Cl         0.12241200       0.38715400       0.40727400
     3  Cl         0.37758800       0.88715400       0.09272600
     4  Cl         0.87758800       0.38715400       0.09272600
     5  Cl         0.37758800       0.11284600       0.59272600
     6  Cl         0.87758800       0.61284600       0.59272600
     7  Cl         0.62241200       0.11284600       0.90727400
     8  Cl         0.12241200       0.61284600       0.90727400
     9  H          0.56720000       0.82430000       0.52040000
    10  H          0.06720000       0.32430000       0.52040000
    11  H          0.43280000       0.82430000       0.97960000
    12  H          0.93280000       0.32430000       0.97960000
    13  H          0.43280000       0.17570000       0.47960000
    14  H          0.93280000       0.67570000       0.47960000
    15  H          0.56720000       0.17570000       0.02040000
    16  H          0.06720000       0.67570000       0.02040000
    17  C          0.36391000       0.63012000       0.60602000
    18  C          0.86391000       0.13012000       0.60602000
    19  C          0.63609000       0.63012000       0.89398000
    20  C          0.13609000       0.13012000       0.89398000
    21  C          0.63609000       0.36988000       0.39398000
    22  C          0.13609000       0.86988000       0.39398000
    23  C          0.36391000       0.36988000       0.10602000
    24  C          0.86391000       0.86988000       0.10602000
    25  C          0.46041000       0.63221000       0.70712000
    26  C          0.96041000       0.13221000       0.70712000
    27  C          0.53959000       0.63221000       0.79288000
    28  C          0.03959000       0.13221000       0.79288000
    29  C          0.53959000       0.36779000       0.29288000
    30  C          0.03959000       0.86779000       0.29288000
    31  C          0.46041000       0.36779000       0.20712000
    32  C          0.96041000       0.86779000       0.20712000
    33  H          0.31920000       0.69930000       0.66830000
    34  H          0.81920000       0.19930000       0.66830000
    35  H          0.68080000       0.69930000       0.83170000
    36  H          0.18080000       0.19930000       0.83170000
    37  H          0.68080000       0.30070000       0.33170000
    38  H          0.18080000       0.80070000       0.33170000
    39  H          0.31920000       0.30070000       0.16830000
    40  H          0.81920000       0.80070000       0.16830000
    41  H          0.37120000       0.67130000       0.47440000
    42  H          0.87120000       0.17130000       0.47440000
    43  H          0.62880000       0.67130000       0.02560000
    44  H          0.12880000       0.17130000       0.02560000
    45  H          0.62880000       0.32870000       0.52560000
    46  H          0.12880000       0.82870000       0.52560000
    47  H          0.37120000       0.32870000       0.97440000
    48  H          0.87120000       0.82870000       0.97440000
    49  H          0.33920000       0.51430000       0.59530000
    50  H          0.83920000       0.01430000       0.59530000
    51  H          0.66080000       0.51430000       0.90470000
    52  H          0.16080000       0.01430000       0.90470000
    53  H          0.66080000       0.48570000       0.40470000
    54  H          0.16080000      -0.01430000       0.40470000
    55  H          0.33920000       0.48570000       0.09530000
    56  H          0.83920000      -0.01430000       0.09530000
