data_JUHKUU
_symmetry_space_group_name_H-M    'P1'
_symmetry_Int_Tables_number       1
loop_
_symmetry_equiv_pos_site_id
_symmetry_equiv_pos_as_xyz
1 x,y,z
_cell_length_a                   7.09842
_cell_length_b                   24.05347
_cell_length_c                   15.77485
_cell_angle_alpha                90.0
_cell_angle_beta                 93.4242
_cell_angle_gamma                90.0
loop_
_atom_site_label
_atom_site_type_symbol
_atom_site_fract_x
_atom_site_fract_y
_atom_site_fract_z
     1  C          0.42732000       0.23070600       0.93206100
     2  C          0.07268000       0.73070600       0.56793900
     3  C          0.57268000       0.76929400       0.06793900
     4  C          0.92732000       0.26929400       0.43206100
     5  C          0.45892000       0.19119600      -0.00390900
     6  C          0.04108000       0.69119600       0.50390900
     7  C          0.54108000       0.80880400       0.00390900
     8  C          0.95892000       0.30880400       0.49609100
     9  C          0.46412000       0.20615600       0.08083100
    10  C          0.03588000       0.70615600       0.41916900
    11  C          0.53588000       0.79384400       0.91916900
    12  C          0.96412000       0.29384400       0.58083100
    13  H          0.48750000       0.17930000       0.12430000
    14  H          0.01250000       0.67930000       0.37570000
    15  H          0.51250000       0.82070000       0.87570000
    16  H         -0.01250000       0.32070000       0.62430000
    17  C          0.43442000       0.26132700       0.10044100
    18  C          0.06558000       0.76132700       0.39955900
    19  C          0.56558000       0.73867300       0.89955900
    20  C          0.93442000       0.23867300       0.60044100
    21  C          0.40242000       0.30193700       0.03959100
    22  C          0.09758000       0.80193700       0.46040900
    23  C          0.59758000       0.69806300       0.96040900
    24  C          0.90242000       0.19806300       0.53959100
    25  H          0.38260000       0.33960000       0.05500000
    26  H          0.11740000       0.83960000       0.44500000
    27  H          0.61740000       0.66040000       0.94500000
    28  H          0.88260000       0.16040000       0.55500000
    29  C          0.40012000       0.28600600       0.95553100
    30  C          0.09988000       0.78600600       0.54446900
    31  C          0.59988000       0.71399400       0.04446900
    32  C          0.90012000       0.21399400       0.45553100
    33  H          0.37950000       0.31330000       0.91250000
    34  H          0.12050000       0.81330000       0.58750000
    35  H          0.62050000       0.68670000       0.08750000
    36  H          0.87950000       0.18670000       0.41250000
    37  C          0.41612000       0.21613700       0.83937100
    38  C          0.08388000       0.71613700       0.66062900
    39  C          0.58388000       0.78386300       0.16062900
    40  C          0.91612000       0.28386300       0.33937100
    41  N          0.43982000       0.27703600       0.19073900
    42  N          0.06018000       0.77703600       0.30926100
    43  N          0.56018000       0.72296400       0.80926100
    44  N          0.93982000       0.22296400       0.69073900
    45  O          0.47903190       0.25670500       0.79244800
    46  O          0.02096810       0.75670500       0.70755200
    47  O          0.52096810       0.74329500       0.20755200
    48  O          0.97903190       0.24329500       0.29244800
    49  O          0.35331190       0.17299500       0.81168800
    50  O          0.14668810       0.67299500       0.68831200
    51  O          0.64668810       0.82700500       0.18831200
    52  O          0.85331190       0.32700500       0.31168800
    53  H          0.46740000       0.24721100       0.73401700
    54  H          0.03260000       0.74721100       0.76598300
    55  H          0.53260000       0.75278900       0.26598300
    56  H          0.96740000       0.25278900       0.23401700
    57  O          0.41502000       0.32550500       0.20873800
    58  O          0.08498000       0.82550500       0.29126200
    59  O          0.58498000       0.67449500       0.79126200
    60  O          0.91502000       0.17449500       0.70873800
    61  O          0.47042000       0.24056600       0.24412800
    62  O          0.02958000       0.74056600       0.25587200
    63  O          0.52958000       0.75943400       0.75587200
    64  O          0.97042000       0.25943400       0.74412800
    65  Cl         0.50556700       0.12213016       0.97490300
    66  Cl        -0.00556700       0.62213016       0.52509700
    67  Cl         0.49443300       0.87786984       0.02509700
    68  Cl         0.00556700       0.37786984       0.47490300
    69  C          0.72922000       0.51244600       0.16573900
    70  C          0.77078000       0.01244600       0.33426100
    71  C          0.27078000       0.48755400       0.83426100
    72  C          0.22922000       0.98755400       0.66573900
    73  C          0.76812000       0.55070600       0.23141900
    74  C          0.73188000       0.05070600       0.26858100
    75  C          0.23188000       0.44929400       0.76858100
    76  C          0.26812000       0.94929400       0.73141900
    77  C          0.74972000       0.53609600       0.31550100
    78  C          0.75028000       0.03609600       0.18449900
    79  C          0.25028000       0.46390400       0.68449900
    80  C          0.24972000       0.96390400       0.81550100
    81  H          0.77950000       0.56170000       0.36010000
    82  H          0.72050000       0.06170000       0.13990000
    83  H          0.22050000       0.43830000       0.63990000
    84  H          0.27950000       0.93830000       0.86010000
    85  C          0.68692000       0.48316600       0.33254900
    86  C          0.81308000       0.98316600       0.16745100
    87  C          0.31308000       0.51683400       0.66745100
    88  C          0.18692000       0.01683400       0.83254900
    89  C          0.64552000       0.44407600       0.27053100
    90  C          0.85448000       0.94407600       0.22946900
    91  C          0.35448000       0.55592400       0.72946900
    92  C          0.14552000       0.05592400       0.77053100
    93  H          0.60190000       0.40800000       0.28440000
    94  H          0.89810000       0.90800000       0.21560000
    95  H          0.39810000       0.59200000       0.71560000
    96  H          0.10190000       0.09200000       0.78440000
    97  C          0.66962000       0.45914600       0.18744100
    98  C          0.83038000       0.95914600       0.31255900
    99  C          0.33038000       0.54085400       0.81255900
   100  C          0.16962000       0.04085400       0.68744100
   101  H          0.64500000       0.43250000       0.14370000
   102  H          0.85500000       0.93250000       0.35630000
   103  H          0.35500000       0.56750000       0.85630000
   104  H          0.14500000       0.06750000       0.64370000
   105  C          0.74382000       0.52613600       0.07317100
   106  C          0.75618000       0.02613600       0.42682900
   107  C          0.25618000       0.47386400       0.92682900
   108  C          0.24382000       0.97386400       0.57317100
   109  N          0.66422000       0.46832600       0.42168900
   110  N          0.83578000       0.96832600       0.07831100
   111  N          0.33578000       0.53167400       0.57831100
   112  N          0.16422000       0.03167400       0.92168900
   113  O          0.75431190       0.48088500       0.02681800
   114  O          0.74568810       0.98088500       0.47318200
   115  O          0.24568810       0.51911500       0.97318200
   116  O          0.25431190       0.01911500       0.52681800
   117  H          0.76130000       0.49029000       0.97158500
   118  H          0.73870000       0.99029000       0.52841500
   119  H          0.23870000       0.50971000       0.02841500
   120  H          0.26130000       0.00971000       0.47158500
   121  O          0.74222000       0.57256500       0.04506700
   122  O          0.75778000       0.07256500       0.45493300
   123  O          0.25778000       0.42743500       0.95493300
   124  O          0.24222000       0.92743500       0.54506700
   125  O          0.56276190       0.42909500       0.43708800
   126  O          0.93723810       0.92909500       0.06291200
   127  O          0.43723810       0.57090500       0.56291200
   128  O          0.06276190       0.07090500       0.93708800
   129  O          0.74982000       0.49620500       0.47676800
   130  O          0.75018000      -0.00379500       0.02323200
   131  O          0.25018000       0.50379500       0.52323200
   132  O          0.24982000       0.00379500       0.97676800
   133  Cl         0.84425600       0.61780615       0.21428300
   134  Cl         0.65574400       0.11780615       0.28571700
   135  Cl         0.15574400       0.38219385       0.78571700
   136  Cl         0.34425600       0.88219385       0.71428300
   137  C          0.43462000       0.26906600       0.56648100
   138  C          0.06538000       0.76906600       0.93351900
   139  C          0.56538000       0.73093400       0.43351900
   140  C          0.93462000       0.23093400       0.06648100
   141  C          0.42312000       0.25824600       0.47929100
   142  C          0.07688000       0.75824600       0.02070900
   143  C          0.57688000       0.74175400       0.52070900
   144  C          0.92312000       0.24175400       0.97929100
   145  C          0.40492000       0.20252700       0.45681110
   146  C          0.09508000       0.70252700       0.04318890
   147  C          0.59508000       0.79747300       0.54318890
   148  C          0.90492000       0.29747300       0.95681110
   149  H          0.39770000       0.19210000       0.39860000
   150  H          0.10230000       0.69210000       0.10140000
   151  H          0.60230000       0.80790000       0.60140000
   152  H          0.89770000       0.30790000       0.89860000
   153  C          0.39712000       0.16218700       0.51915110
   154  C          0.10288000       0.66218700       0.98084890
   155  C          0.60288000       0.83781300       0.48084890
   156  C          0.89712000       0.33781300       0.01915110
   157  H          0.38430000       0.12410000       0.50370000
   158  H          0.11570000       0.62410000      -0.00370000
   159  H          0.61570000       0.87590000       0.49630000
   160  H          0.88430000       0.37590000       0.00370000
   161  C          0.40792000       0.17718700       0.60281110
   162  C          0.09208000       0.67718700       0.89718890
   163  C          0.59208000       0.82281300       0.39718890
   164  C          0.90792000       0.32281300       0.10281110
   165  H          0.40110000       0.14930000       0.64510000
   166  H          0.09890000       0.64930000       0.85490000
   167  H          0.59890000       0.85070000       0.35490000
   168  H          0.90110000       0.35070000       0.14510000
   169  N          0.42798190       0.23108500       0.62666800
   170  N          0.07201810       0.73108500       0.87333200
   171  N          0.57201810       0.76891500       0.37333200
   172  N          0.92798190       0.26891500       0.12666800
   173  N          0.42393000       0.29973700       0.42026100
   174  N          0.07607000       0.79973700       0.07973900
   175  N          0.57607000       0.70026300       0.57973900
   176  N          0.92393000       0.20026300       0.92026100
   177  H          0.45930000       0.33079000       0.43681400
   178  H          0.04070000       0.83079000       0.06318600
   179  H          0.54070000       0.66921000       0.56318600
   180  H          0.95930000       0.16921000       0.93681400
   181  H          0.43630000       0.28999000       0.36691700
   182  H          0.06370000       0.78999000       0.13308300
   183  H          0.56370000       0.71001000       0.63308300
   184  H          0.93630000       0.21001000       0.86691700
   185  Cl         0.45593700       0.33741217       0.60068300
   186  Cl         0.04406300       0.83741217       0.89931700
   187  Cl         0.54406300       0.66258783       0.39931700
   188  Cl         0.95593700       0.16258783       0.10068300
   189  C          0.74652000       0.46547600       0.80001900
   190  C          0.75348000       0.96547600       0.69998100
   191  C          0.25348000       0.53452400       0.19998100
   192  C          0.24652000       0.03452400       0.30001900
   193  C          0.77242000       0.47574600       0.71413100
   194  C          0.72758000       0.97574600       0.78586900
   195  C          0.22758000       0.52425400       0.28586900
   196  C          0.27242000       0.02425400       0.21413100
   197  C          0.82402000       0.52984700       0.69431900
   198  C          0.67598000       0.02984700       0.80568100
   199  C          0.17598000       0.47015300       0.30568100
   200  C          0.32402000       0.97015300       0.19431900
   201  H          0.84250000       0.53960000       0.63710000
   202  H          0.65750000       0.03960000       0.86290000
   203  H          0.15750000       0.46040000       0.36290000
   204  H          0.34250000       0.96040000       0.13710000
   205  C          0.84822000       0.56915700       0.75732890
   206  C          0.65178000       0.06915700       0.74267110
   207  C          0.15178000       0.43084300       0.24267110
   208  C          0.34822000       0.93084300       0.25732890
   209  H          0.88230000       0.60620000       0.74380000
   210  H          0.61770000       0.10620000       0.75620000
   211  H          0.11770000       0.39380000       0.25620000
   212  H          0.38230000       0.89380000       0.24380000
   213  C          0.82252000       0.55438700       0.84031900
   214  C          0.67748000       0.05438700       0.65968100
   215  C          0.17748000       0.44561300       0.15968100
   216  C          0.32252000       0.94561300       0.34031900
   217  H          0.84110000       0.58150000       0.88380000
   218  H          0.65890000       0.08150000       0.61620000
   219  H          0.15890000       0.41850000       0.11620000
   220  H          0.34110000       0.91850000       0.38380000
   221  N          0.77182180       0.50256500       0.86117200
   222  N          0.72817820       0.00256500       0.63882800
   223  N          0.22817820       0.49743500       0.13882800
   224  N          0.27182180      -0.00256500       0.36117200
   225  N          0.74962000       0.43509700       0.65415900
   226  N          0.75038000       0.93509700       0.84584100
   227  N          0.25038000       0.56490300       0.34584100
   228  N          0.24962000       0.06490300       0.15415900
   229  H          0.71530000       0.40281000       0.67108600
   230  H          0.78470000       0.90281000       0.82891400
   231  H          0.28470000       0.59719000       0.32891400
   232  H          0.21530000       0.09719000       0.17108600
   233  H          0.75530000       0.44368000       0.60388600
   234  H          0.74470000       0.94368000       0.89611400
   235  H          0.24470000       0.55632000       0.39611400
   236  H          0.25530000       0.05632000       0.10388600
   237  Cl         0.67158600       0.39982416       0.82942700
   238  Cl         0.82841400       0.89982416       0.67057300
   239  Cl         0.32841400       0.60017584       0.17057300
   240  Cl         0.17158600       0.10017584       0.32942700
