data_JUJDEX
_symmetry_space_group_name_H-M    'P1'
_symmetry_Int_Tables_number       1
loop_
_symmetry_equiv_pos_site_id
_symmetry_equiv_pos_as_xyz
1 x,y,z
_cell_length_a                   7.2922
_cell_length_b                   12.5375
_cell_length_c                   12.4795
_cell_angle_alpha                90.0
_cell_angle_beta                 92.733
_cell_angle_gamma                90.0
loop_
_atom_site_label
_atom_site_type_symbol
_atom_site_fract_x
_atom_site_fract_y
_atom_site_fract_z
     1  Cl         0.45975800       0.88935500       0.10913500
     2  Cl         0.04024200       0.38935500       0.39086500
     3  Cl         0.54024200       0.11064500       0.89086500
     4  Cl         0.95975800       0.61064500       0.60913500
     5  Cl         0.51762130       0.62572500       0.05067600
     6  Cl        -0.01762130       0.12572500       0.44932400
     7  Cl         0.48237870       0.37427500       0.94932400
     8  Cl         0.01762130       0.87427500       0.55067600
     9  H          0.48850000       0.70240000       0.06930000
    10  H          0.01150000       0.20240000       0.43070000
    11  H          0.51150000       0.29760000       0.93070000
    12  H         -0.01150000       0.79760000       0.56930000
    13  Cl         0.23427800       0.85677500       0.86091500
    14  Cl         0.26572200       0.35677500       0.63908500
    15  Cl         0.76572200       0.14322500       0.13908500
    16  Cl         0.73427800       0.64322500       0.36091500
    17  H          0.33150000       0.87430000       0.94370000
    18  H          0.16850000       0.37430000       0.55630000
    19  H          0.66850000       0.12570000       0.05630000
    20  H          0.83150000       0.62570000       0.44370000
    21  Cl         0.25476800       0.13709500       0.14722500
    22  Cl         0.24523200       0.63709500       0.35277500
    23  Cl         0.74523200       0.86290500       0.85277500
    24  Cl         0.75476800       0.36290500       0.64722500
    25  H          0.34640000       0.05430000       0.13830000
    26  H          0.15360000       0.55430000       0.36170000
    27  H          0.65360000       0.94570000       0.86170000
    28  H          0.84640000       0.44570000       0.63830000
    29  Cl         0.52050120       0.94914600       0.37569500
    30  Cl         0.97949880       0.44914600       0.12430500
    31  Cl         0.47949880       0.05085400       0.62430500
    32  Cl         0.02050120       0.55085400       0.87569500
    33  H          0.48950000       0.92130000       0.29330000
    34  H          0.01050000       0.42130000       0.20670000
    35  H          0.51050000       0.07870000       0.70670000
    36  H         -0.01050000       0.57870000       0.79330000
    37  S          0.95530800       0.88418400       0.11506400
    38  S          0.54469200       0.38418400       0.38493600
    39  S          0.04469200       0.11581600       0.88493600
    40  S          0.45530800       0.61581600       0.61506400
    41  C         -0.00826000       0.89972000       0.25802000
    42  C          0.50826000       0.39972000       0.24198000
    43  C          0.00826000       0.10028000       0.74198000
    44  C          0.49174000       0.60028000       0.75802000
    45  C         -0.01226000       0.74302000       0.09822000
    46  C          0.51226000       0.24302000       0.40178000
    47  C          0.01226000       0.25698000       0.90178000
    48  C          0.48774000       0.75698000       0.59822000
    49  H          0.78340000       0.89020000       0.10520000
    50  H          0.71660000       0.39020000       0.39480000
    51  H          0.21660000       0.10980000       0.89480000
    52  H          0.28340000       0.60980000       0.60520000
    53  H          0.92640000       0.85530000       0.29130000
    54  H          0.57360000       0.35530000       0.20870000
    55  H          0.07360000       0.14470000       0.70870000
    56  H          0.42640000       0.64470000       0.79130000
    57  H          0.95640000       0.97330000       0.28030000
    58  H          0.54360000       0.47330000       0.21970000
    59  H          0.04360000       0.02670000       0.71970000
    60  H          0.45640000       0.52670000       0.78030000
    61  H          0.11040000       0.89320000       0.27130000
    62  H          0.38960000       0.39320000       0.22870000
    63  H          0.88960000       0.10680000       0.72870000
    64  H          0.61040000       0.60680000       0.77130000
    65  H          0.91140000       0.70320000       0.14720000
    66  H          0.58860000       0.20320000       0.35280000
    67  H          0.08860000       0.29680000       0.85280000
    68  H          0.41140000       0.79680000       0.64720000
    69  H          0.95740000       0.72430000       0.02530000
    70  H          0.54260000       0.22430000       0.47470000
    71  H          0.04260000       0.27570000       0.97470000
    72  H          0.45740000       0.77570000       0.52530000
    73  H          0.11740000       0.73020000       0.11020000
    74  H          0.38260000       0.23020000       0.38980000
    75  H          0.88260000       0.26980000       0.88980000
    76  H          0.61740000       0.76980000       0.61020000
