data_JUKJII
_symmetry_space_group_name_H-M    'P1'
_symmetry_Int_Tables_number       1
loop_
_symmetry_equiv_pos_site_id
_symmetry_equiv_pos_as_xyz
1 x,y,z
_cell_length_a                   13.6661
_cell_length_b                   5.4132
_cell_length_c                   18.2981
_cell_angle_alpha                90.0
_cell_angle_beta                 108.551
_cell_angle_gamma                90.0
loop_
_atom_site_label
_atom_site_type_symbol
_atom_site_fract_x
_atom_site_fract_y
_atom_site_fract_z
     1  C          0.40041000       0.48556000       0.57291000
     2  C          0.59959000      -0.01444000       0.92709000
     3  C          0.59959000       0.51444000       0.42709000
     4  C          0.40041000       0.01444000       0.07291000
     5  C          0.44172000       0.63295000       0.63761000
     6  C          0.55828000       0.13295000       0.86239000
     7  C          0.55828000       0.36705000       0.36239000
     8  C          0.44172000       0.86705000       0.13761000
     9  C          0.53552000       0.57825000       0.69231000
    10  C          0.46448000       0.07825000       0.80769000
    11  C          0.46448000       0.42175000       0.30769000
    12  C          0.53552000       0.92175000       0.19231000
    13  C          0.59082000       0.37605000       0.68381000
    14  C          0.40918000       0.87605000       0.81619000
    15  C          0.40918000       0.62395000       0.31619000
    16  C          0.59082000       0.12395000       0.18381000
    17  C          0.55112000       0.22665000       0.62092000
    18  C          0.44888000       0.72665000       0.87908000
    19  C          0.44888000       0.77335000       0.37908000
    20  C          0.55112000       0.27335000       0.12092000
    21  C          0.45732000       0.27955000       0.56581000
    22  C          0.54268000       0.77955000       0.93419000
    23  C          0.54268000       0.72045000       0.43419000
    24  C          0.45732000       0.22045000       0.06581000
    25  C          0.29961000       0.54076000       0.51401000
    26  C          0.70039000       0.04076000       0.98599000
    27  C          0.70039000       0.45924000       0.48599000
    28  C          0.29961000       0.95924000       0.01401000
    29  C          0.26132000       0.38285000       0.44291000
    30  C          0.73868000       0.88285000       0.05709000
    31  C          0.73868000       0.61715000       0.55709000
    32  C          0.26132000       0.11715000       0.94291000
    33  N          0.24801000       0.72477000       0.52721800
    34  N          0.75199000       0.22477000       0.97278200
    35  N          0.75199000       0.27523000       0.47278200
    36  N          0.24801000       0.77523000       0.02721800
    37  O          0.15411000       0.76367000       0.46805800
    38  O          0.84589000       0.26367000       0.03194200
    39  O          0.84589000       0.23633000       0.53194200
    40  O          0.15411000       0.73633000       0.96805800
    41  H          0.40520000       0.78650000       0.64610000
    42  H          0.59480000       0.28650000       0.85390000
    43  H          0.59480000       0.21350000       0.35390000
    44  H          0.40520000       0.71350000       0.14610000
    45  H          0.56220000       0.69050000       0.73810000
    46  H          0.43780000       0.19050000       0.76190000
    47  H          0.43780000       0.30950000       0.26190000
    48  H          0.56220000       0.80950000       0.23810000
    49  H          0.65620000       0.33360000       0.72210000
    50  H          0.34380000       0.83360000       0.77790000
    51  H          0.34380000       0.66640000       0.27790000
    52  H          0.65620000       0.16640000       0.22210000
    53  H          0.58320000       0.09150000       0.61620000
    54  H          0.41680000       0.59150000       0.88380000
    55  H          0.41680000       0.90850000       0.38380000
    56  H          0.58320000       0.40850000       0.11620000
    57  H          0.42920000       0.16250000       0.52010000
    58  H          0.57080000       0.66250000       0.97990000
    59  H          0.57080000       0.83750000       0.47990000
    60  H          0.42920000       0.33750000       0.02010000
    61  H          0.30420000       0.39140000       0.41320000
    62  H          0.69580000       0.89140000       0.08680000
    63  H          0.69580000       0.60860000       0.58680000
    64  H          0.30420000       0.10860000       0.91320000
    65  H          0.19530000       0.43140000       0.41220000
    66  H          0.80470000       0.93140000       0.08780000
    67  H          0.80470000       0.56860000       0.58780000
    68  H          0.19530000       0.06860000       0.91220000
    69  H          0.25730000       0.21520000       0.45620000
    70  H          0.74270000       0.71520000       0.04380000
    71  H          0.74270000       0.78480000       0.54380000
    72  H          0.25730000       0.28480000       0.95620000
    73  H          0.13020000       0.89940000       0.48520000
    74  H          0.86980000       0.39940000       0.01480000
    75  H          0.86980000       0.10060000       0.51480000
    76  H          0.13020000       0.60060000       0.98520000
    77  C          0.13711000       0.38944000       0.65581000
    78  C          0.86289000       0.88944000       0.84419000
    79  C          0.86289000       0.61056000       0.34419000
    80  C          0.13711000       0.11056000       0.15581000
    81  C          0.06291000       0.56814000       0.62311000
    82  C          0.93709000       0.06814000       0.87689000
    83  C          0.93709000       0.43186000       0.37689000
    84  C          0.06291000       0.93186000       0.12311000
    85  C          0.04052000       0.74844000       0.66951000
    86  C          0.95948000       0.24844000       0.83049000
    87  C          0.95948000       0.25156000       0.33049000
    88  C          0.04052000       0.75156000       0.16951000
    89  C          0.09062000       0.74814000       0.74811000
    90  C          0.90938000       0.24814000       0.75189000
    91  C          0.90938000       0.25186000       0.25189000
    92  C          0.09062000       0.75186000       0.24811000
    93  C          0.16392000       0.56984000       0.78111000
    94  C          0.83608000       0.06984000       0.71889000
    95  C          0.83608000       0.43016000       0.21889000
    96  C          0.16392000       0.93016000       0.28111000
    97  C          0.18782000       0.39164000       0.73511000
    98  C          0.81218000       0.89164000       0.76489000
    99  C          0.81218000       0.60836000       0.26489000
   100  C          0.18782000       0.10836000       0.23511000
   101  C          0.15801000       0.19674000       0.60511000
   102  C          0.84199000       0.69674000       0.89489000
   103  C          0.84199000       0.80326000       0.39489000
   104  C          0.15801000       0.30326000       0.10511000
   105  O          0.10241000       0.16173000       0.53928700
   106  O          0.89759000       0.66173000       0.96071300
   107  O          0.89759000       0.83827000       0.46071300
   108  O          0.10241000       0.33827000       0.03928700
   109  O          0.24241000       0.06353000       0.63776800
   110  O          0.75759000       0.56353000       0.86223200
   111  O          0.75759000       0.93647000       0.36223200
   112  O          0.24241000       0.43647000       0.13776800
   113  H          0.02710000       0.56740000       0.56710000
   114  H          0.97290000       0.06740000       0.93290000
   115  H          0.97290000       0.43260000       0.43290000
   116  H          0.02710000       0.93260000       0.06710000
   117  H         -0.01220000       0.87640000       0.64710000
   118  H          0.01220000       0.37640000       0.85290000
   119  H          0.01220000       0.12360000       0.35290000
   120  H         -0.01220000       0.62360000       0.14710000
   121  H          0.07510000       0.86640000       0.77910000
   122  H          0.92490000       0.36640000       0.72090000
   123  H          0.92490000       0.13360000       0.22090000
   124  H          0.07510000       0.63360000       0.27910000
   125  H          0.19810000       0.56640000       0.83710000
   126  H          0.80190000       0.06640000       0.66290000
   127  H          0.80190000       0.43360000       0.16290000
   128  H          0.19810000       0.93360000       0.33710000
   129  H          0.23920000       0.27640000       0.75510000
   130  H          0.76080000       0.77640000       0.74490000
   131  H          0.76080000       0.72360000       0.24490000
   132  H          0.23920000       0.22360000       0.25510000
   133  H          0.25320000       0.94240000       0.60020000
   134  H          0.74680000       0.44240000       0.89980000
   135  H          0.74680000       0.05760000       0.39980000
   136  H          0.25320000       0.55760000       0.10020000
