data_JUNMAJ
_symmetry_space_group_name_H-M    'P1'
_symmetry_Int_Tables_number       1
loop_
_symmetry_equiv_pos_site_id
_symmetry_equiv_pos_as_xyz
1 x,y,z
_cell_length_a                   9.47464
_cell_length_b                   11.37175
_cell_length_c                   23.15511
_cell_angle_alpha                90.0
_cell_angle_beta                 91.99001
_cell_angle_gamma                90.0
loop_
_atom_site_label
_atom_site_type_symbol
_atom_site_fract_x
_atom_site_fract_y
_atom_site_fract_z
     1  P          0.36134400       0.47913300       0.72904200
     2  P          0.63865600       0.97913300       0.77095800
     3  P          0.63865600       0.52086700       0.27095800
     4  P          0.36134400       0.02086700       0.22904200
     5  O          0.45050100       0.51193900       0.67902400
     6  O          0.54949900       0.01193900       0.82097600
     7  O          0.54949900       0.48806100       0.32097600
     8  O          0.45050100      -0.01193900       0.17902400
     9  O          0.38730100       0.35800900       0.75332400
    10  O          0.61269900       0.85800900       0.74667600
    11  O          0.61269900       0.64199100       0.24667600
    12  O          0.38730100       0.14199100       0.25332400
    13  C          0.38862140       0.58886130       0.78727600
    14  C          0.61137860       0.08886130       0.71272400
    15  C          0.61137860       0.41113870       0.21272400
    16  C          0.38862140       0.91113870       0.28727600
    17  H          0.39380000       0.66770000       0.76930000
    18  H          0.60620000       0.16770000       0.73070000
    19  H          0.60620000       0.33230000       0.23070000
    20  H          0.39380000       0.83230000       0.26930000
    21  H          0.30460000       0.58810000       0.81150000
    22  H          0.69540000       0.08810000       0.68850000
    23  H          0.69540000       0.41190000       0.18850000
    24  H          0.30460000       0.91190000       0.31150000
    25  N          0.51710110       0.57240100       0.82592500
    26  N          0.48289890       0.07240100       0.67407500
    27  N          0.48289890       0.42759900       0.17407500
    28  N          0.51710110       0.92759900       0.32592500
    29  H          0.50320000       0.50631700       0.84878000
    30  H          0.49680000       0.00631700       0.65122000
    31  H          0.49680000       0.49368300       0.15122000
    32  H          0.50320000      -0.00631700       0.34878000
    33  C          0.54193140       0.67777120       0.86504600
    34  C          0.45806860       0.17777120       0.63495400
    35  C          0.45806860       0.32222880       0.13495400
    36  C          0.54193140       0.82222880       0.36504600
    37  H          0.62890000       0.66410000       0.88900000
    38  H          0.37110000       0.16410000       0.61100000
    39  H          0.37110000       0.33590000       0.11100000
    40  H          0.62890000       0.83590000       0.38900000
    41  H          0.55810000       0.74780000       0.84080000
    42  H          0.44190000       0.24780000       0.65920000
    43  H          0.44190000       0.25220000       0.15920000
    44  H          0.55810000       0.75220000       0.34080000
    45  C          0.42242140       0.70363120       0.90436600
    46  C          0.57757860       0.20363120       0.59563400
    47  C          0.57757860       0.29636880       0.09563400
    48  C          0.42242140       0.79636880       0.40436600
    49  C          0.33968150       0.80328130       0.89543600
    50  C          0.66031850       0.30328130       0.60456400
    51  C          0.66031850       0.19671870       0.10456400
    52  C          0.33968150       0.69671870       0.39543600
    53  H          0.35470000       0.85260000       0.86310000
    54  H          0.64530000       0.35260000       0.63690000
    55  H          0.64530000       0.14740000       0.13690000
    56  H          0.35470000       0.64740000       0.36310000
    57  C          0.23473160       0.83100150       0.93383700
    58  C          0.76526840       0.33100150       0.56616300
    59  C          0.76526840       0.16899850       0.06616300
    60  C          0.23473160       0.66899850       0.43383700
    61  H          0.17790000       0.89890000       0.92740000
    62  H          0.82210000       0.39890000       0.57260000
    63  H          0.82210000       0.10110000       0.07260000
    64  H          0.17790000       0.60110000       0.42740000
    65  C          0.21297160       0.76007150       0.98120700
    66  C          0.78702840       0.26007150       0.51879300
    67  C          0.78702840       0.23992850       0.01879300
    68  C          0.21297160       0.73992850       0.48120700
    69  H          0.14120000       0.77920000       0.00730000
    70  H          0.85880000       0.27920000       0.49270000
    71  H          0.85880000       0.22080000       0.99270000
    72  H          0.14120000       0.72080000       0.50730000
    73  C          0.29591160       0.66112140       0.99062600
    74  C          0.70408840       0.16112140       0.50937400
    75  C          0.70408840       0.33887860       0.00937400
    76  C          0.29591160       0.83887860       0.49062600
    77  H          0.28120000       0.61240000       0.02320000
    78  H          0.71880000       0.11240000       0.47680000
    79  H          0.71880000       0.38760000       0.97680000
    80  H          0.28120000       0.88760000       0.52320000
    81  C          0.40038150       0.63331130       0.95247600
    82  C          0.59961850       0.13331130       0.54752400
    83  C          0.59961850       0.36668870       0.04752400
    84  C          0.40038150       0.86668870       0.45247600
    85  H          0.45750000       0.56570000       0.95920000
    86  H          0.54250000       0.06570000       0.54080000
    87  H          0.54250000       0.43430000       0.04080000
    88  H          0.45750000       0.93430000       0.45920000
    89  C          0.64571140       0.54941130       0.79063600
    90  C          0.35428860       0.04941130       0.70936400
    91  C          0.35428860       0.45058870       0.20936400
    92  C          0.64571140       0.95058870       0.29063600
    93  H          0.63120000       0.47510000       0.76900000
    94  H          0.36880000       0.97510000       0.73100000
    95  H          0.36880000       0.52490000       0.23100000
    96  H          0.63120000       0.02490000       0.26900000
    97  H          0.65430000       0.61350000       0.76200000
    98  H          0.34570000       0.11350000       0.73800000
    99  H          0.34570000       0.38650000       0.23800000
   100  H          0.65430000       0.88650000       0.26200000
   101  C          0.78220140       0.54091120       0.82588600
   102  C          0.21779860       0.04091120       0.67411400
   103  C          0.21779860       0.45908880       0.17411400
   104  C          0.78220140       0.95908880       0.32588600
   105  C          0.88035150       0.63123130       0.82204600
   106  C          0.11964850       0.13123130       0.67795400
   107  C          0.11964850       0.36876870       0.17795400
   108  C          0.88035150       0.86876870       0.32204600
   109  H          0.85670000       0.69980000       0.80040000
   110  H          0.14330000       0.19980000       0.69960000
   111  H          0.14330000       0.30020000       0.19960000
   112  H          0.85670000       0.80020000       0.30040000
   113  C          0.01214150       0.62231140       0.84945700
   114  C         -0.01214150       0.12231140       0.65054300
   115  C         -0.01214150       0.37768860       0.15054300
   116  C          0.01214150       0.87768860       0.34945700
   117  H          0.07870000       0.68430000       0.84640000
   118  H          0.92130000       0.18430000       0.65360000
   119  H          0.92130000       0.31570000       0.15360000
   120  H          0.07870000       0.81570000       0.34640000
   121  C          0.04645150       0.52287150       0.88134700
   122  C          0.95354850       0.02287150       0.61865300
   123  C          0.95354850       0.47712850       0.11865300
   124  C          0.04645150       0.97712850       0.38134700
   125  H          0.13720000       0.51600000       0.89980000
   126  H          0.86280000       0.01600000       0.60020000
   127  H          0.86280000       0.48400000       0.10020000
   128  H          0.13720000       0.98400000       0.39980000
   129  C          0.94827160       0.43314150       0.88644700
   130  C          0.05172840       0.93314150       0.61355300
   131  C          0.05172840       0.56685850       0.11355300
   132  C          0.94827160       0.06685850       0.38644700
   133  H          0.97140000       0.36570000       0.90900000
   134  H          0.02860000       0.86570000       0.59100000
   135  H          0.02860000       0.63430000       0.09100000
   136  H          0.97140000       0.13430000       0.40900000
   137  C          0.81624150       0.44165130       0.85862600
   138  C          0.18375850       0.94165130       0.64137400
   139  C          0.18375850       0.55834870       0.14137400
   140  C          0.81624150       0.05834870       0.35862600
   141  H          0.74950000       0.37990000       0.86200000
   142  H          0.25050000       0.87990000       0.63800000
   143  H          0.25050000       0.62010000       0.13800000
   144  H          0.74950000       0.12010000       0.36200000
   145  C          0.17678140       0.49776120       0.70983600
   146  C          0.82321860      -0.00223880       0.79016400
   147  C          0.82321860       0.50223880       0.29016400
   148  C          0.17678140       0.00223880       0.20983600
   149  C          0.07729150       0.42137130       0.73234600
   150  C          0.92270850       0.92137130       0.76765400
   151  C          0.92270850       0.57862870       0.26765400
   152  C          0.07729150       0.07862870       0.23234600
   153  H          0.10650000       0.36250000       0.75930000
   154  H          0.89350000       0.86250000       0.74070000
   155  H          0.89350000       0.63750000       0.24070000
   156  H          0.10650000       0.13750000       0.25930000
   157  C          0.93559850       0.43117140       0.71542700
   158  C          0.06440150       0.93117140       0.78457300
   159  C          0.06440150       0.56882860       0.28457300
   160  C          0.93559850       0.06882860       0.21542700
   161  H          0.86900000       0.37680000       0.72950000
   162  H          0.13100000       0.87680000       0.77050000
   163  H          0.13100000       0.62320000       0.27050000
   164  H          0.86900000       0.12320000       0.22950000
   165  C          0.89133850       0.51961150       0.67821700
   166  C          0.10866150       0.01961150       0.82178300
   167  C          0.10866150       0.48038850       0.32178300
   168  C          0.89133850       0.98038850       0.17821700
   169  H          0.79410000       0.52680000       0.66730000
   170  H          0.20590000       0.02680000       0.83270000
   171  H          0.20590000       0.47320000       0.33270000
   172  H          0.79410000       0.97320000       0.16730000
   173  C         -0.01145170       0.59785160       0.65672700
   174  C          0.01145170       0.09785160       0.84327300
   175  C          0.01145170       0.40214840       0.34327300
   176  C         -0.01145170       0.90214840       0.15672700
   177  H          0.95760000       0.65950000       0.63170000
   178  H          0.04240000       0.15950000       0.86830000
   179  H          0.04240000       0.34050000       0.36830000
   180  H          0.95760000       0.84050000       0.13170000
   181  C          0.13130160       0.58629140       0.67174700
   182  C          0.86869840       0.08629140       0.82825300
   183  C          0.86869840       0.41370860       0.32825300
   184  C          0.13130160       0.91370860       0.17174700
   185  H          0.19800000       0.63870000       0.65610000
   186  H          0.80200000       0.13870000       0.84390000
   187  H          0.80200000       0.36130000       0.34390000
   188  H          0.19800000       0.86130000       0.15610000
   189  P          0.56588400       0.76708300       0.60744200
   190  P          0.43411600       0.26708300       0.89255800
   191  P          0.43411600       0.23291700       0.39255800
   192  P          0.56588400       0.73291700       0.10744200
   193  O          0.43777100       0.68398100       0.61350500
   194  O          0.56222900       0.18398100       0.88649500
   195  O          0.56222900       0.31601900       0.38649500
   196  O          0.43777100       0.81601900       0.11350500
   197  H          0.44630000       0.62320000       0.63891100
   198  H          0.55370000       0.12320000       0.86108900
   199  H          0.55370000       0.37680000       0.36108900
   200  H          0.44630000       0.87680000       0.13891100
   201  O          0.67475110       0.74283100       0.65834500
   202  O          0.32524890       0.24283100       0.84165500
   203  O          0.32524890       0.25716900       0.34165500
   204  O          0.67475110       0.75716900       0.15834500
   205  H          0.65220000       0.78520000       0.68931000
   206  H          0.34780000       0.28520000       0.81069000
   207  H          0.34780000       0.21480000       0.31069000
   208  H          0.65220000       0.71480000       0.18931000
   209  O          0.52152110       0.89236900       0.60360400
   210  O          0.47847890       0.39236900       0.89639600
   211  O          0.47847890       0.10763100       0.39639600
   212  O          0.52152110       0.60763100       0.10360400
   213  C          0.65672140       0.72310120       0.54438600
   214  C          0.34327860       0.22310120       0.95561400
   215  C          0.34327860       0.27689880       0.45561400
   216  C          0.65672140       0.77689880       0.04438600
   217  C          0.64059170       0.61157140       0.52067700
   218  C          0.35940830       0.11157140       0.97932300
   219  C          0.35940830       0.38842860       0.47932300
   220  C          0.64059170       0.88842860       0.02067700
   221  H          0.57850000       0.55670000       0.53750000
   222  H          0.42150000       0.05670000       0.96250000
   223  H          0.42150000       0.44330000       0.46250000
   224  H          0.57850000       0.94330000       0.03750000
   225  C          0.71542190       0.57980150       0.47214700
   226  C          0.28457810       0.07980150       0.02785300
   227  C          0.28457810       0.42019850       0.52785300
   228  C          0.71542190       0.92019850       0.97214700
   229  H          0.70280000       0.50390000       0.45560000
   230  H          0.29720000       0.00390000       0.04440000
   231  H          0.29720000       0.49610000       0.54440000
   232  H          0.70280000      -0.00390000       0.95560000
   233  C          0.80741170       0.65825160       0.44823700
   234  C          0.19258830       0.15825160       0.05176300
   235  C          0.19258830       0.34174840       0.55176300
   236  C          0.80741170       0.84174840       0.94823700
   237  H          0.85940000       0.63590000       0.41560000
   238  H          0.14060000       0.13590000       0.08440000
   239  H          0.14060000       0.36410000       0.58440000
   240  H          0.85940000       0.86410000       0.91560000
   241  C          0.82435160       0.76962160       0.47163700
   242  C          0.17564840       0.26962160       0.02836300
   243  C          0.17564840       0.23037840       0.52836300
   244  C          0.82435160       0.73037840       0.97163700
   245  H          0.88800000       0.82360000       0.45510000
   246  H          0.11200000       0.32360000       0.04490000
   247  H          0.11200000       0.17640000       0.54490000
   248  H          0.88800000       0.67640000       0.95510000
   249  C          0.74842150       0.80238140       0.51917600
   250  C          0.25157850       0.30238140       0.98082400
   251  C          0.25157850       0.19761860       0.48082400
   252  C          0.74842150       0.69761860       0.01917600
   253  H          0.75900000       0.87940000       0.53470000
   254  H          0.24100000       0.37940000       0.96530000
   255  H          0.24100000       0.12060000       0.46530000
   256  H          0.75900000       0.62060000       0.03470000
