data_JUPCII
_symmetry_space_group_name_H-M    'P1'
_symmetry_Int_Tables_number       1
loop_
_symmetry_equiv_pos_site_id
_symmetry_equiv_pos_as_xyz
1 x,y,z
_cell_length_a                   5.70785
_cell_length_b                   11.53831
_cell_length_c                   12.19801
_cell_angle_alpha                62.86401
_cell_angle_beta                 79.418012
_cell_angle_gamma                76.980012
loop_
_atom_site_label
_atom_site_type_symbol
_atom_site_fract_x
_atom_site_fract_y
_atom_site_fract_z
     1  S          0.10198100       0.77756500       0.27242500
     2  S          0.89801900       0.22243500       0.72757500
     3  O          0.85387000       0.81773170       0.31178160
     4  O          0.14613000       0.18226830       0.68821840
     5  O          0.28533000       0.79408170       0.32874160
     6  O          0.71467000       0.20591830       0.67125840
     7  N          0.31674000       0.94391190       0.93301820
     8  N          0.68326000       0.05608810       0.06698180
     9  N          0.11574000       0.85815190       0.12492170
    10  N          0.88426000       0.14184810       0.87507830
    11  N          0.18144000       0.19652000       0.44932000
    12  N          0.81856000       0.80348000       0.55068000
    13  H          0.16560000       0.16640000       0.52740000
    14  H          0.83440000       0.83360000       0.47260000
    15  H          0.31270000       0.16240000       0.42740000
    16  H          0.68730000       0.83760000       0.57260000
    17  H          0.05980000       0.17740000       0.42840000
    18  H          0.94020000       0.82260000       0.57160000
    19  N          0.52364000       0.76222000       0.09207190
    20  N          0.47636000       0.23778000       0.90792810
    21  C          0.71354000       0.86092000       0.88328000
    22  C          0.28646000       0.13908000       0.11672000
    23  H          0.85200000       0.86200000       0.82630000
    24  H          0.14800000       0.13800000       0.17370000
    25  C          0.71135000       0.76862000       0.00702000
    26  C          0.28865000       0.23138000      -0.00702000
    27  H          0.85340000       0.70580000       0.03260000
    28  H          0.14660000       0.29420000       0.96740000
    29  C          0.32274000       0.85082000       0.05362000
    30  C          0.67726000       0.14918000       0.94638000
    31  C          0.50604000       0.95002000       0.84808000
    32  C          0.49396000       0.04998000       0.15192000
    33  H          0.49620000       0.01490000       0.76490000
    34  H          0.50380000       0.98510000       0.23510000
    35  C          0.13284000       0.60672000       0.31482000
    36  C          0.86716000       0.39328000       0.68518000
    37  C          0.95426000       0.55862000       0.29122000
    38  C          0.04574000       0.44138000       0.70878000
    39  H          0.82170000       0.61730000       0.24770000
    40  H          0.17830000       0.38270000       0.75230000
    41  C          0.97326000       0.42252000       0.33252000
    42  C          0.02674000       0.57748000       0.66748000
    43  H          0.85640000       0.38750000       0.31540000
    44  H          0.14360000       0.61250000       0.68460000
    45  C          0.16504000       0.33972000       0.39892000
    46  C          0.83496000       0.66028000       0.60108000
    47  C          0.34244000       0.38702000       0.42362000
    48  C          0.65756000       0.61298000       0.57638000
    49  H          0.47160000       0.32790000       0.46990000
    50  H          0.52840000       0.67210000       0.53010000
    51  C          0.32724000       0.52252000       0.37932000
    52  C          0.67276000       0.47748000       0.62068000
    53  H          0.44890000       0.55740000       0.39310000
    54  H          0.55110000       0.44260000       0.60690000
    55  H          0.18960000       0.00030000       0.91670000
    56  H          0.81040000      -0.00030000       0.08330000
    57  O          0.71665000       0.34832000       0.06482000
    58  O          0.28335000       0.65168000       0.93518000
    59  H          0.71210000       0.28410000       0.14430000
    60  H          0.28790000       0.71590000       0.85570000
    61  C          0.51878000       0.44404000       0.06923000
    62  C          0.48122000       0.55596000       0.93077000
    63  H          0.57210000       0.48500000       0.11440000
    64  H          0.42790000       0.51500000       0.88560000
    65  H          0.37170000       0.40660000       0.09060000
    66  H          0.62830000       0.59340000       0.90940000
    67  Br         0.74542400       0.12280200       0.35540200
    68  Br         0.25457600       0.87719800       0.64459800
