data_JUPCEE
_symmetry_space_group_name_H-M    'P1'
_symmetry_Int_Tables_number       1
loop_
_symmetry_equiv_pos_site_id
_symmetry_equiv_pos_as_xyz
1 x,y,z
_cell_length_a                   5.71853
_cell_length_b                   11.64406
_cell_length_c                   12.34936
_cell_angle_alpha                116.69716
_cell_angle_beta                 91.71176
_cell_angle_gamma                104.16997
loop_
_atom_site_label
_atom_site_type_symbol
_atom_site_fract_x
_atom_site_fract_y
_atom_site_fract_z
     1  I          0.58670200       0.49731200       0.10306200
     2  I          0.41329800       0.50268800       0.89693800
     3  Br         0.73467200       0.48085200       0.35361200
     4  Br         0.26532800       0.51914800       0.64638800
     5  S          0.65234600       0.05216300       0.27278300
     6  S          0.34765400       0.94783700       0.72721700
     7  O          0.48472000       0.13359100       0.31024100
     8  O          0.51528000       0.86640900       0.68975900
     9  O          0.90558190       0.12122110       0.32689100
    10  O          0.09441810       0.87877890       0.67310900
    11  N          0.69842000       0.87734110       0.93450900
    12  N          0.30158000       0.12265890       0.06549100
    13  H          0.59040000       0.92020000       0.90880000
    14  H          0.40960000       0.07980000       0.09120000
    15  N          0.88632000       0.85753120       0.09559110
    16  N          0.11368000       0.14246880       0.90440890
    17  N          0.60192000      -0.01512890       0.12561100
    18  N          0.39808000       0.01512890       0.87438900
    19  N          0.33182000       0.64853110       0.45163120
    20  N          0.66818000       0.35146890       0.54836880
    21  H          0.36940000       0.69420000       0.53020000
    22  H          0.63060000       0.30580000       0.46980000
    23  H          0.17040000       0.60020000       0.42920000
    24  H          0.82960000       0.39980000       0.57080000
    25  H          0.42540000       0.59120000       0.42820000
    26  H          0.57460000       0.40880000       0.57180000
    27  C          0.73242000       0.90688120       0.05588110
    28  C          0.26758000       0.09311880       0.94411890
    29  C          0.81632000       0.80052130       0.85198870
    30  C          0.18368000       0.19947870       0.14801130
    31  H          0.78240000       0.78120000       0.77680000
    32  H          0.21760000       0.21880000       0.22320000
    33  C         -0.02557000       0.74894150       0.88938860
    34  C          0.02557000       0.25105850       0.11061140
    35  H          0.06640000       0.69720000       0.83180000
    36  H          0.93360000       0.30280000       0.16820000
    37  C          0.00063000       0.78071140       0.01340140
    38  C         -0.00063000       0.21928860       0.98659860
    39  H          0.11040000       0.74820000       0.04320000
    40  H          0.88960000       0.25180000       0.95680000
    41  C          0.55612000       0.92606120       0.31807110
    42  C          0.44388000       0.07393880       0.68192890
    43  C          0.30872000       0.85722130       0.29572130
    44  C          0.69128000       0.14277870       0.70427870
    45  H          0.19440000       0.88020000       0.26120000
    46  H          0.80560000       0.11980000       0.73880000
    47  C          0.23432000       0.76295130       0.33732130
    48  C          0.76568000       0.23704870       0.66267870
    49  H          0.06840000       0.71120000       0.32120000
    50  H          0.93160000       0.28880000       0.67880000
    51  C          0.40732000       0.74363120       0.40344120
    52  C          0.59268000       0.25636880       0.59655880
    53  C          0.65372000       0.81352130       0.42808130
    54  C          0.34628000       0.18647870       0.57191870
    55  H          0.76240000       0.79920000       0.47720000
    56  H          0.23760000       0.20080000       0.52280000
    57  C          0.72822000       0.90439130       0.38321120
    58  C          0.27178000       0.09560870       0.61678880
    59  H          0.88140000       0.95420000       0.39520000
    60  H          0.11860000       0.04580000       0.60480000
