data_JUPCAA
_symmetry_space_group_name_H-M    'P1'
_symmetry_Int_Tables_number       1
loop_
_symmetry_equiv_pos_site_id
_symmetry_equiv_pos_as_xyz
1 x,y,z
_cell_length_a                   5.65616
_cell_length_b                   11.412612
_cell_length_c                   12.206412
_cell_angle_alpha                116.61401
_cell_angle_beta                 91.1312
_cell_angle_gamma                104.1142
loop_
_atom_site_label
_atom_site_type_symbol
_atom_site_fract_x
_atom_site_fract_y
_atom_site_fract_z
     1  I          0.58942200       0.49876200       0.10359200
     2  I          0.41057800       0.50123800       0.89640800
     3  Cl         0.73672700       0.48460400       0.35449400
     4  Cl         0.26327300       0.51539600       0.64550600
     5  S          0.65231600       0.05445300       0.27490300
     6  S          0.34768400       0.94554700       0.72509700
     7  O          0.48472000       0.13865120       0.31274110
     8  O          0.51528000       0.86134880       0.68725890
     9  O          0.90722000       0.12276120       0.32847110
    10  O          0.09278000       0.87723880       0.67152890
    11  N          0.69922000       0.87384130       0.93306890
    12  N          0.30078000       0.12615870       0.06693110
    13  H          0.60760000       0.91530000       0.91570000
    14  H          0.39240000       0.08470000       0.08430000
    15  N          0.89142000       0.85595130       0.09550120
    16  N          0.10858000       0.14404870       0.90449880
    17  N          0.60312000      -0.01438880       0.12642110
    18  N          0.39688000       0.01438880       0.87357890
    19  N          0.32312000       0.63467130       0.44716120
    20  N          0.67688000       0.36532870       0.55283880
    21  H          0.35160000       0.68030000       0.53330000
    22  H          0.64840000       0.31970000       0.46670000
    23  H          0.17860000       0.59230000       0.42130000
    24  H          0.82140000       0.40770000       0.57870000
    25  H          0.40460000       0.58230000       0.42130000
    26  H          0.59540000       0.41770000       0.57870000
    27  C          0.73472000       0.90506130       0.05562120
    28  C          0.26528000       0.09493870       0.94437880
    29  C          0.81683000       0.79430150       0.84887870
    30  C          0.18317000       0.20569850       0.15112130
    31  H          0.79260000       0.78730000       0.77270000
    32  H          0.20740000       0.21270000       0.22730000
    33  C         -0.02067000       0.74348160       0.88672860
    34  C          0.02067000       0.25651840       0.11327140
    35  H          0.06360000       0.69730000       0.83470000
    36  H          0.93640000       0.30270000       0.16530000
    37  C          0.00813000       0.77750160       0.01206140
    38  C         -0.00813000       0.22249840      -0.01206140
    39  H          0.12960000       0.74740000       0.04130000
    40  H          0.87040000       0.25260000       0.95870000
    41  C          0.55222000       0.92560130       0.32055120
    42  C          0.44778000       0.07439870       0.67944880
    43  C          0.30332000       0.85515150       0.29677130
    44  C          0.69668000       0.14484850       0.70322870
    45  H          0.19260000       0.88030000       0.25530000
    46  H          0.80740000       0.11970000       0.74470000
    47  C          0.22653000       0.75688140       0.33686130
    48  C          0.77347000       0.24311860       0.66313870
    49  H          0.06560000       0.70430000       0.32130000
    50  H          0.93440000       0.29570000       0.67870000
    51  C          0.40002000       0.73559130       0.40264120
    52  C          0.59998000       0.26440870       0.59735880
    53  C          0.64793000       0.80766140       0.42888130
    54  C          0.35207000       0.19233860       0.57111870
    55  H          0.76360000       0.79330000       0.47230000
    56  H          0.23640000       0.20670000       0.52770000
    57  C          0.72482000       0.90257140       0.38554130
    58  C          0.27518000       0.09742860       0.61445870
    59  H          0.89460000       0.95430000       0.40230000
    60  H          0.10540000       0.04570000       0.59770000
