data_JUPDAB
_symmetry_space_group_name_H-M    'P1'
_symmetry_Int_Tables_number       1
loop_
_symmetry_equiv_pos_site_id
_symmetry_equiv_pos_as_xyz
1 x,y,z
_cell_length_a                   8.05779
_cell_length_b                   10.869412
_cell_length_c                   11.747113
_cell_angle_alpha                84.2912
_cell_angle_beta                 74.2302
_cell_angle_gamma                85.7922
loop_
_atom_site_label
_atom_site_type_symbol
_atom_site_fract_x
_atom_site_fract_y
_atom_site_fract_z
     1  I          0.37874200       0.66162200       0.37869200
     2  I          0.62125800       0.33837800       0.62130800
     3  I          0.32311300       0.49592200       0.20208200
     4  I          0.67688700       0.50407800       0.79791800
     5  I          0.41079300       0.82932200       0.53919200
     6  I          0.58920700       0.17067800       0.46080800
     7  S          0.12809900       0.04045600       0.21246600
     8  S          0.87190100       0.95954400       0.78753400
     9  O          0.14913000       0.16989180       0.21897180
    10  O          0.85087000       0.83010820       0.78102820
    11  O          0.03963000       0.01369190       0.12664170
    12  O          0.96037000       0.98630810       0.87335830
    13  N          0.94027000       0.83732000       0.49252000
    14  N          0.05973000       0.16268000       0.50748000
    15  H          0.94150000       0.89230000       0.54530000
    16  H          0.05850000       0.10770000       0.45470000
    17  N          0.96237000       0.79582000       0.29632000
    18  N          0.03763000       0.20418000       0.70368000
    19  N          0.04053000       0.98762000       0.34552000
    20  N          0.95947000       0.01238000       0.65448000
    21  N          0.84413000       0.81233000       0.08142000
    22  N          0.15587000       0.18767000       0.91858000
    23  H          0.91660000       0.84940000       0.01640000
    24  H          0.08340000       0.15060000       0.98360000
    25  H          0.90950000       0.82140000       0.12740000
    26  H          0.09050000       0.17860000       0.87260000
    27  H          0.84740000       0.74040000       0.06630000
    28  H          0.15260000       0.25960000       0.93370000
    29  C          0.98367000       0.87343000       0.37362000
    30  C          0.01633000       0.12657000       0.62638000
    31  C          0.88356000       0.72473000       0.53533000
    32  C          0.11644000       0.27527000       0.46467000
    33  H          0.85590000       0.70210000       0.61830000
    34  H          0.14410000       0.29790000       0.38170000
    35  C          0.86576000       0.64233000       0.45923000
    36  C          0.13424000       0.35767000       0.54077000
    37  H          0.82760000       0.56140000       0.48660000
    38  H          0.17240000       0.43860000       0.51340000
    39  C          0.90646000       0.68353000       0.33983000
    40  C          0.09354000       0.31647000       0.66017000
    41  H          0.89380000       0.62820000       0.28540000
    42  H          0.10620000       0.37180000       0.71460000
    43  C          0.33773000       0.96853000       0.17342000
    44  C          0.66227000       0.03147000       0.82658000
    45  C          0.46054000       0.00933000       0.22203000
    46  C          0.53946000      -0.00933000       0.77797000
    47  H          0.43060000       0.07240000       0.27550000
    48  H          0.56940000       0.92760000       0.72450000
    49  C          0.62714000       0.95713000       0.19213000
    50  C          0.37286000       0.04287000       0.80787000
    51  H          0.71300000       0.98440000       0.22410000
    52  H          0.28700000       0.01560000       0.77590000
    53  C          0.66614000       0.86503000       0.11522000
    54  C          0.33386000       0.13497000       0.88478000
    55  C          0.54474000       0.82333000       0.06632000
    56  C          0.45526000       0.17667000       0.93368000
    57  H          0.57570000       0.76040000       0.01270000
    58  H          0.42430000       0.23960000       0.98730000
    59  C          0.37624000       0.87473000       0.09672000
    60  C          0.62376000       0.12527000       0.90328000
    61  H          0.28990000       0.84620000       0.06580000
    62  H          0.71010000       0.15380000       0.93420000
    63  O          0.85323000       0.31342000       0.00292000
    64  O          0.14677000       0.68658000      -0.00292000
    65  H          0.79770000       0.37740000       0.97150000
    66  H          0.20230000       0.62260000       0.02850000
    67  O          0.77113000       0.55002000       0.11112000
    68  O          0.22887000       0.44998000       0.88888000
    69  H          0.65731700       0.53940000       0.13140000
    70  H          0.34268300       0.46060000       0.86860000
    71  C          0.78705000       0.32323000       0.12743000
    72  C          0.21295000       0.67677000       0.87257000
    73  H          0.83140000       0.25100000       0.17070000
    74  H          0.16860000       0.74900000       0.82930000
    75  H          0.65960000       0.32110000       0.14900000
    76  H          0.34040000       0.67890000       0.85100000
    77  C          0.83625000       0.43983000       0.16583000
    78  C          0.16375000       0.56017000       0.83417000
    79  H          0.79150000       0.43990000       0.25310000
    80  H          0.20850000       0.56010000       0.74690000
    81  H          0.96370000       0.44070000       0.14600000
    82  H          0.03630000       0.55930000       0.85400000
