data_JUQYUS
_symmetry_space_group_name_H-M    'P1'
_symmetry_Int_Tables_number       1
loop_
_symmetry_equiv_pos_site_id
_symmetry_equiv_pos_as_xyz
1 x,y,z
_cell_length_a                   7.811601
_cell_length_b                   6.346701
_cell_length_c                   27.42324
_cell_angle_alpha                90.0
_cell_angle_beta                 96.66801
_cell_angle_gamma                90.0
loop_
_atom_site_label
_atom_site_type_symbol
_atom_site_fract_x
_atom_site_fract_y
_atom_site_fract_z
     1  Cl         0.19784800       0.53273110       0.26970300
     2  Cl         0.80215200       0.03273110       0.73029700
     3  N          0.37993000       0.69454000       0.69957900
     4  N          0.62007000       0.19454000       0.30042100
     5  N          0.54893000       0.66974000       0.69251900
     6  N          0.45107000       0.16974000       0.30748100
     7  H          0.62440000       0.77450000       0.70361200
     8  H          0.37560000       0.27450000       0.29638800
     9  N          0.19963000       0.07824000       0.71880900
    10  N          0.80037000       0.57824000       0.28119100
    11  H          0.24140000       0.94660000       0.71621200
    12  H          0.75860000       0.44660000       0.28378800
    13  H          0.09730000       0.07050000       0.73091100
    14  H          0.90270000       0.57050000       0.26908900
    15  H          0.27730000       0.14050000       0.74351000
    16  H          0.72270000       0.64050000       0.25649000
    17  C          0.58194000       0.48194000       0.67255100
    18  C          0.41806000      -0.01806000       0.32744900
    19  H          0.68817600       0.43250200       0.66528500
    20  H          0.31182400       0.93250200       0.33471500
    21  C          0.42603000       0.37794000       0.66511900
    22  C          0.57397000       0.87794000       0.33488100
    23  C          0.34054000       0.17974000       0.64524100
    24  C          0.65946000       0.67974000       0.35475900
    25  H          0.40972100       0.05686300       0.65678300
    26  H          0.59027900       0.55686300       0.34321700
    27  C          0.17024000       0.18685000       0.67047100
    28  C          0.82976000       0.68685000       0.32952900
    29  H          0.07480000       0.12116300       0.64949000
    30  H          0.92520000       0.62116300       0.35051000
    31  C          0.13134000       0.42205000       0.67960100
    32  C          0.86866000       0.92205000       0.32039900
    33  H          0.05564700       0.48192000       0.65259200
    34  H          0.94435300      -0.01808000       0.34740800
    35  H          0.08056200       0.44133900       0.70994000
    36  H          0.91943800       0.94133900       0.29006000
    37  C          0.30883000       0.51455000       0.68277900
    38  C          0.69117000       0.01455000       0.31722100
    39  C          0.29913000       0.17235000       0.58975100
    40  C          0.70087000       0.67235000       0.41024900
    41  C          0.21934000      -0.01335000       0.56887110
    42  C          0.78066000       0.48665000       0.43112890
    43  H          0.19750900       0.87527700       0.58928400
    44  H          0.80249100       0.37527700       0.41071600
    45  C          0.17434000       0.96885000       0.51952110
    46  C          0.82566000       0.46885000       0.48047890
    47  H          0.12076600       0.84647400       0.50686200
    48  H          0.87923400       0.34647400       0.49313800
    49  C          0.20794000       0.13425000       0.48727110
    50  C          0.79206000       0.63425000       0.51272890
    51  C          0.16234000       0.12165000       0.43594110
    52  C          0.83766000       0.62165000       0.56405890
    53  H          0.10895300       0.00039500       0.42251000
    54  H          0.89104700       0.50039500       0.57749000
    55  C          0.19514000       0.28445000       0.40562110
    56  C          0.80486000       0.78445000       0.59437890
    57  H          0.16266000       0.27435800       0.37198700
    58  H          0.83734000       0.77435800       0.62801300
    59  C          0.27834000       0.46745000       0.42556110
    60  C          0.72166000       0.96745000       0.57443890
    61  H          0.30148800       0.57732200       0.40488800
    62  H          0.69851200       0.07732200       0.59511200
    63  C          0.32534000       0.48485000       0.47504110
    64  C          0.67466000      -0.01515000       0.52495890
    65  H          0.38131800       0.60598000       0.48748400
    66  H          0.61868200       0.10598000       0.51251600
    67  C          0.29004000       0.32125000       0.50769110
    68  C          0.70996000       0.82125000       0.49230890
    69  C          0.33273000       0.33544000       0.55900100
    70  C          0.66727000       0.83544000       0.44099900
    71  H          0.38467000       0.45739000       0.57238800
    72  H          0.61533000       0.95739000       0.42761200
    73  N          0.16603000       0.73454000       0.79212900
    74  N          0.83397000       0.23454000       0.20787100
    75  N          0.00093000       0.66664000       0.79411900
    76  N         -0.00093000       0.16664000       0.20588100
    77  H          0.90660000       0.74460000       0.77891300
    78  H          0.09340000       0.24460000       0.22108700
    79  N          0.47374000       0.17715000       0.79257100
    80  N          0.52626000       0.67715000       0.20742900
    81  H          0.48550000       0.03940000       0.80121300
    82  H          0.51450000       0.53940000       0.19878700
    83  H          0.57540000       0.21460000       0.78071400
    84  H          0.42460000       0.71460000       0.21928600
    85  C         -0.00714000       0.47375000       0.81501110
    86  C          0.00714000       0.97375000       0.18498890
    87  H          0.89392800       0.39839900       0.81960300
    88  H          0.10607200       0.89839900       0.18039700
    89  C          0.16124000       0.41195000       0.82809100
    90  C          0.83876000       0.91195000       0.17190900
    91  C          0.27264000       0.24335000       0.85381110
    92  C          0.72736000       0.74335000       0.14618890
    93  H          0.23544300       0.10541000       0.84044500
    94  H          0.76455700       0.60541000       0.15955500
    95  C          0.45334000       0.29945000       0.83711110
    96  C          0.54666000       0.79945000       0.16288890
    97  H          0.54656200       0.26850400       0.86321100
    98  H          0.45343800       0.76850400       0.13678900
    99  C          0.44904000       0.53686000       0.82406110
   100  C          0.55096000       0.03686000       0.17593890
   101  H          0.49922100       0.62156700       0.85149200
   102  H          0.50077900       0.12156700       0.14850800
   103  H          0.50912800       0.56488300       0.79572100
   104  H          0.49087200       0.06488300       0.20427900
   105  C          0.25964000       0.57705000       0.81294100
   106  C          0.74036000       0.07705000       0.18705900
   107  C          0.27654000       0.23935000       0.90915110
   108  C          0.72346000       0.73935000       0.09084890
   109  C          0.34494000       0.05675000       0.93469110
   110  C          0.65506000       0.55675000       0.06530890
   111  H          0.38971400       0.94838000       0.91719800
   112  H          0.61028600       0.44838000       0.08280200
   113  C          0.34583000       0.03775000       0.98407110
   114  C          0.65417000       0.53775000       0.01592890
   115  H          0.39213700       0.91735700      -0.00015700
   116  H          0.60786300       0.41735700       0.00015700
   117  C          0.27724000       0.19895000       0.01186110
   118  C          0.72276000       0.69895000       0.98813890
   119  C          0.26614000       0.17836000       0.06279110
   120  C          0.73386000       0.67836000       0.93720890
   121  H          0.30442600       0.05528600       0.07896800
   122  H          0.69557400       0.55528600       0.92103200
   123  C          0.19934000       0.33806000       0.08855120
   124  C          0.80066000       0.83806000       0.91144880
   125  H          0.19222100       0.32243800       0.12197300
   126  H          0.80777900       0.82243800       0.87802700
   127  C          0.14134000       0.52646000       0.06438110
   128  C          0.85866000       0.02646000       0.93561890
   129  H          0.09803200       0.63516100       0.08210600
   130  H          0.90196800       0.13516100       0.91789400
   131  C          0.14864000       0.54905000       0.01518110
   132  C          0.85136000       0.04905000       0.98481890
   133  H          0.10902800       0.67287800      -0.00035100
   134  H          0.89097200       0.17287800       0.00035100
   135  C          0.21554000       0.38655000       0.98736110
   136  C          0.78446000       0.88655000       0.01263890
   137  C          0.21664000       0.40115000       0.93582110
   138  C          0.78336000       0.90115000       0.06417890
   139  H          0.17569800       0.52312800       0.91966200
   140  H          0.82430200       0.02312800       0.08033800
