data_JUVFUE
_symmetry_space_group_name_H-M    'P1'
_symmetry_Int_Tables_number       1
loop_
_symmetry_equiv_pos_site_id
_symmetry_equiv_pos_as_xyz
1 x,y,z
_cell_length_a                   8.35773
_cell_length_b                   19.28065
_cell_length_c                   10.99724
_cell_angle_alpha                90.0
_cell_angle_beta                 105.0644
_cell_angle_gamma                90.0
loop_
_atom_site_label
_atom_site_type_symbol
_atom_site_fract_x
_atom_site_fract_y
_atom_site_fract_z
     1  S          0.42179400       0.34389200       0.76509400
     2  S          0.07820600       0.84389200       0.73490600
     3  S          0.57820600       0.65610800       0.23490600
     4  S          0.92179400       0.15610800       0.26509400
     5  S          0.55051600       0.50329200       0.76265500
     6  S          0.94948400       0.00329200       0.73734500
     7  S          0.44948400       0.49670800       0.23734500
     8  S          0.05051600      -0.00329200       0.26265500
     9  O          0.49474150       0.37520600       0.88645100
    10  O          0.00525850       0.87520600       0.61354900
    11  O          0.50525850       0.62479400       0.11354900
    12  O         -0.00525850       0.12479400       0.38645100
    13  O          0.30640140       0.28814600       0.76477130
    14  O          0.19359860       0.78814600       0.73522870
    15  O          0.69359860       0.71185400       0.23522870
    16  O          0.80640140       0.21185400       0.26477130
    17  N          0.32759160       0.39770700       0.66269120
    18  N          0.17240840       0.89770700       0.83730880
    19  N          0.67240840       0.60229300       0.33730880
    20  N          0.82759160       0.10229300       0.16269120
    21  N          0.31376170       0.50439700       0.56343140
    22  N          0.18623830       0.00439700       0.93656860
    23  N          0.68623830       0.49560300       0.43656860
    24  N          0.81376170      -0.00439700       0.06343140
    25  N         -0.01888000       0.22397800       0.59796150
    26  N          0.51888000       0.72397800       0.90203850
    27  N          0.01888000       0.77602200       0.40203850
    28  N          0.48112000       0.27602200       0.09796150
    29  H          0.96120000       0.19208000       0.53891500
    30  H          0.53880000       0.69208000       0.96108500
    31  H          0.03880000       0.80792000       0.46108500
    32  H          0.46120000       0.30792000       0.03891500
    33  H          0.08141500       0.23281100       0.64671700
    34  H          0.41858500       0.73281100       0.85328300
    35  H          0.91858500       0.76718900       0.35328300
    36  H          0.58141500       0.26718900       0.14671700
    37  C          0.85055190       0.25128700       0.63574140
    38  C          0.64944810       0.75128700       0.86425860
    39  C          0.14944810       0.74871300       0.36425860
    40  C          0.35055190       0.24871300       0.13574140
    41  C          0.58707170       0.30894700       0.71394130
    42  C          0.91292830       0.80894700       0.78605870
    43  C          0.41292830       0.69105300       0.28605870
    44  C          0.08707170       0.19105300       0.21394130
    45  C          0.38521180       0.46251800       0.65698140
    46  C          0.11478820       0.96251800       0.84301860
    47  C          0.61478820       0.53748200       0.34301860
    48  C          0.88521180       0.03748200       0.15698140
    49  C          0.74866190       0.32142900       0.78066150
    50  C          0.75133810       0.82142900       0.71933850
    51  C          0.25133810       0.67857100       0.21933850
    52  C          0.24866190       0.17857100       0.28066150
    53  H          0.77011400       0.34900300       0.85245500
    54  H          0.72988600       0.84900300       0.64754500
    55  H          0.22988600       0.65099700       0.14754500
    56  H          0.27011400       0.15099700       0.35245500
    57  C          0.55792000       0.26837900       0.60619160
    58  C          0.94208000       0.76837900       0.89380840
    59  C          0.44208000       0.73162100       0.39380840
    60  C          0.05792000       0.23162100       0.10619160
    61  H          0.44957900       0.26023800       0.55964100
    62  H          0.05042100       0.76023800       0.94035900
    63  H          0.55042100       0.73976200       0.44035900
    64  H          0.94957900       0.23976200       0.05964100
    65  C          0.87852000       0.29321900       0.74146150
    66  C          0.62148000       0.79321900       0.75853850
    67  C          0.12148000       0.70678100       0.25853850
    68  C          0.37852000       0.20678100       0.24146150
    69  H         -0.01327100       0.30250400       0.78682500
    70  H          0.51327100       0.80250400       0.71317500
    71  H          0.01327100       0.69749600       0.21317500
    72  H          0.48672900       0.19749600       0.28682500
    73  C          0.38862000       0.56850900       0.57166180
    74  C          0.11138000       0.06850900       0.92833820
    75  C          0.61138000       0.43149100       0.42833820
    76  C          0.88862000       0.93149100       0.07166180
    77  H          0.35141000       0.60326200       0.51244400
    78  H          0.14859000       0.10326200      -0.01244400
    79  H          0.64859000       0.39673800       0.48755600
    80  H          0.85141000       0.89673800       0.01244400
    81  C          0.68702000       0.24017900       0.56768160
    82  C          0.81298000       0.74017900       0.93231840
    83  C          0.31298000       0.75982100       0.43231840
    84  C          0.18702000       0.25982100       0.06768160
    85  H          0.66525100       0.21322200       0.49507900
    86  H          0.83474900       0.71322200       0.00492100
    87  H          0.33474900       0.78677800       0.50492100
    88  H          0.16525100       0.28677800      -0.00492100
    89  C          0.51793000       0.57696100       0.67042000
    90  C         -0.01793000       0.07696100       0.82958000
    91  C          0.48207000       0.42303900       0.32958000
    92  C          0.01793000       0.92303900       0.17042000
    93  H          0.58181900       0.61699800       0.68753400
    94  H          0.91818100       0.11699800       0.81246600
    95  H          0.41818100       0.38300200       0.31246600
    96  H          0.08181900       0.88300200       0.18753400
    97  H          0.23240000       0.48820000       0.50630000
    98  H          0.26760000       0.98820000      -0.00630000
    99  H          0.76760000       0.51180000       0.49370000
   100  H          0.73240000       0.01180000       0.00630000
   101  N          0.06566170       0.46303700       0.36236130
   102  N          0.43433830       0.96303700       0.13763870
   103  N          0.93433830       0.53696300       0.63763870
   104  N          0.56566170       0.03696300       0.86236130
   105  C          0.90038000       0.49959800       0.16123150
   106  C          0.59962000      -0.00040200       0.33876850
   107  C          0.09962000       0.50040200       0.83876850
   108  C          0.40038000       0.00040200       0.66123150
   109  C          0.01852000       0.51104800       0.27082150
   110  C          0.48148000       0.01104800       0.22917850
   111  C         -0.01852000       0.48895200       0.72917850
   112  C          0.51852000       0.98895200       0.77082150
   113  H          0.06932600       0.55431300       0.28317600
   114  H          0.43067400       0.05431300       0.21682400
   115  H          0.93067400       0.44568700       0.71682400
   116  H          0.56932600       0.94568700       0.78317600
   117  C         -0.00412000       0.40013900       0.34959180
   118  C          0.50412000       0.90013900       0.15040820
   119  C          0.00412000       0.59986100       0.65040820
   120  C          0.49588000       0.09986100       0.84959180
   121  C          0.82628000       0.43421100       0.14805180
   122  C          0.67372000       0.93421100       0.35194820
   123  C          0.17372000       0.56578900       0.85194820
   124  C          0.32628000       0.06578900       0.64805180
   125  H          0.74382600       0.42384500       0.07558200
   126  H          0.75617400       0.92384500       0.42441800
   127  H          0.25617400       0.57615500       0.92441800
   128  H          0.24382600       0.07615500       0.57558200
   129  N          0.04613000       0.35488100       0.44432000
   130  N          0.45387000       0.85488100       0.05568000
   131  N          0.95387000       0.64511900       0.55568000
   132  N          0.54613000       0.14511900       0.94432000
   133  H          0.11730000       0.36751400       0.51551700
   134  H          0.38270000       0.86751400       0.98448300
   135  H          0.88270000       0.63248600       0.48448300
   136  H          0.61730000       0.13248600       0.01551700
   137  H         -0.01030000       0.31639000       0.44230000
   138  H          0.51030000       0.81639000       0.05770000
   139  H          0.01030000       0.68361000       0.55770000
   140  H          0.48970000       0.18361000       0.94230000
   141  C          0.87328000       0.38531100       0.24002000
   142  C          0.62672000       0.88531100       0.25998000
   143  C          0.12672000       0.61468900       0.75998000
   144  C          0.37328000       0.11468900       0.74002000
   145  H          0.82333000       0.34185100       0.22951300
   146  H          0.67667000       0.84185100       0.27048700
   147  H          0.17667000       0.65814900       0.77048700
   148  H          0.32333000       0.15814900       0.72951300
   149  C          0.85257000       0.55428110       0.06146170
   150  C          0.64743000       0.05428110       0.43853830
   151  C          0.14743000       0.44571890       0.93853830
   152  C          0.35257000       0.94571890       0.56146170
   153  H          0.91542200       0.59565400       0.08902200
   154  H          0.58457800       0.09565400       0.41097800
   155  H          0.08457800       0.40434600       0.91097800
   156  H          0.41542200       0.90434600       0.58902200
   157  H          0.73651100       0.56426700       0.04632900
   158  H          0.76348900       0.06426700       0.45367100
   159  H          0.26348900       0.43573300       0.95367100
   160  H          0.23651100       0.93573300       0.54632900
   161  H          0.87509500       0.53792700       0.98512900
   162  H          0.62490500       0.03792700       0.51487100
   163  H          0.12490500       0.46207300       0.01487100
   164  H          0.37509500       0.96207300       0.48512900
