data_JUVGEP
_symmetry_space_group_name_H-M    'P1'
_symmetry_Int_Tables_number       1
loop_
_symmetry_equiv_pos_site_id
_symmetry_equiv_pos_as_xyz
1 x,y,z
_cell_length_a                   8.37862
_cell_length_b                   19.64473
_cell_length_c                   11.11722
_cell_angle_alpha                90.0
_cell_angle_beta                 106.8852
_cell_angle_gamma                90.0
loop_
_atom_site_label
_atom_site_type_symbol
_atom_site_fract_x
_atom_site_fract_y
_atom_site_fract_z
     1  Br         0.84874600       0.57342200       0.03054300
     2  Br         0.65125400       0.07342200       0.46945700
     3  Br         0.15125400       0.42657800       0.96945700
     4  Br         0.34874600       0.92657800       0.53054300
     5  N          0.05263000       0.46487110       0.35422000
     6  N          0.44737000       0.96487110       0.14578000
     7  N          0.94737000       0.53512890       0.64578000
     8  N          0.55263000       0.03512890       0.85422000
     9  C          0.00963000       0.51290130       0.26412000
    10  C          0.49037000       0.01290130       0.23588000
    11  C         -0.00963000       0.48709870       0.73588000
    12  C          0.50963000       0.98709870       0.76412000
    13  H          0.06339600       0.55479100       0.27924200
    14  H          0.43660400       0.05479100       0.22075800
    15  H          0.93660400       0.44520900       0.72075800
    16  H          0.56339600       0.94520900       0.77924200
    17  C          0.97516000       0.40476140       0.33083000
    18  C          0.52484000       0.90476140       0.16917000
    19  C          0.02484000       0.59523860       0.66917000
    20  C          0.47516000       0.09523860       0.83083000
    21  C          0.80986000       0.44126140       0.12843000
    22  C          0.69014000       0.94126140       0.37157000
    23  C          0.19014000       0.55873860       0.87157000
    24  C          0.30986000       0.05873860       0.62843000
    25  H          0.72785200       0.43353600       0.05285200
    26  H          0.77214800       0.93353600       0.44714800
    27  H          0.27214800       0.56646400       0.94714800
    28  H          0.22785200       0.06646400       0.55285200
    29  C          0.89167000       0.50330120       0.15252000
    30  C          0.60833000       0.00330120       0.34748000
    31  C          0.10833000       0.49669880       0.84748000
    32  C          0.39167000      -0.00330120       0.65252000
    33  N          0.01965000       0.35741160       0.42293000
    34  N          0.48035000       0.85741160       0.07707000
    35  N         -0.01965000       0.64258840       0.57707000
    36  N          0.51965000       0.14258840       0.92293000
    37  H          0.97250000       0.31671100       0.40940000
    38  H          0.52750000       0.81671100       0.09060000
    39  H          0.02750000       0.68328900       0.59060000
    40  H          0.47250000       0.18328900       0.90940000
    41  H          0.09940000       0.36420000       0.49420000
    42  H          0.40060000       0.86420000       0.00580000
    43  H          0.90060000       0.63580000       0.50580000
    44  H          0.59940000       0.13580000      -0.00580000
    45  C          0.85226000       0.39213150       0.21753000
    46  C          0.64774000       0.89213150       0.28247000
    47  C          0.14774000       0.60786850       0.78247000
    48  C          0.35226000       0.10786850       0.71753000
    49  H          0.79961200       0.34998200       0.20339700
    50  H          0.70038800       0.84998200       0.29660300
    51  H          0.20038800       0.65001800       0.79660300
    52  H          0.29961200       0.15001800       0.70339700
    53  S          0.42281800       0.34038300       0.75460600
    54  S          0.07718200       0.84038300       0.74539400
    55  S          0.57718200       0.65961700       0.24539400
    56  S          0.92281800       0.15961700       0.25460600
    57  S          0.55297100       0.49620400       0.76372800
    58  S          0.94702900      -0.00379600       0.73627200
    59  S          0.44702900       0.50379600       0.23627200
    60  S          0.05297100       0.00379600       0.26372800
    61  O          0.30752000       0.28516900       0.74918190
    62  O          0.19248000       0.78516900       0.75081810
    63  O          0.69248000       0.71483100       0.25081810
    64  O          0.80752000       0.21483100       0.24918190
    65  O          0.49812000       0.36980900       0.87695160
    66  O          0.00188000       0.86980900       0.62304840
    67  O          0.50188000       0.63019100       0.12304840
    68  O         -0.00188000       0.13019100       0.37695160
    69  N          0.32452000       0.39536110       0.65382000
    70  N          0.17548000       0.89536110       0.84618000
    71  N          0.67548000       0.60463890       0.34618000
    72  N          0.82452000       0.10463890       0.15382000
    73  N          0.31353000       0.50238110       0.56482000
    74  N          0.18647000       0.00238110       0.93518000
    75  N          0.68647000       0.49761890       0.43518000
    76  N          0.81353000      -0.00238110       0.06482000
    77  H          0.23230000       0.49091400       0.50091700
    78  H          0.26770000       0.99091400      -0.00091700
    79  H          0.76770000       0.50908600       0.49908300
    80  H          0.73230000       0.00908600       0.00091700
    81  N          0.97593000       0.22970130       0.58322000
    82  N          0.52407000       0.72970130       0.91678000
    83  N          0.02407000       0.77029870       0.41678000
    84  N          0.47593000       0.27029870       0.08322000
    85  H          0.07881900       0.23811600       0.63020000
    86  H          0.42118100       0.73811600       0.86980000
    87  H          0.92118100       0.76188400       0.36980000
    88  H          0.57881900       0.26188400       0.13020000
    89  H          0.94840000       0.20051300       0.52120000
    90  H          0.55160000       0.70051300       0.97880000
    91  H          0.05160000       0.79948700       0.47880000
    92  H          0.44840000       0.29948700       0.02120000
    93  C          0.58553000       0.30921110       0.70052000
    94  C          0.91447000       0.80921110       0.79948000
    95  C          0.41447000       0.69078890       0.29948000
    96  C          0.08553000       0.19078890       0.20052000
    97  C          0.87863000       0.29683130       0.72732000
    98  C          0.62137000       0.79683130       0.77268000
    99  C          0.12137000       0.70316870       0.27268000
   100  C          0.37863000       0.20316870       0.22732000
   101  H         -0.01167700       0.30654100       0.77228900
   102  H          0.51167700       0.80654100       0.72771100
   103  H          0.01167700       0.69345900       0.22771100
   104  H          0.48832300       0.19345900       0.27228900
   105  C          0.75033000       0.32252120       0.76782000
   106  C          0.74967000       0.82252120       0.73218000
   107  C          0.24967000       0.67747880       0.23218000
   108  C          0.25033000       0.17747880       0.26782000
   109  H          0.77390500       0.34885500       0.84038800
   110  H          0.72609500       0.84885500       0.65961200
   111  H          0.22609500       0.65114500       0.15961200
   112  H          0.27390500       0.15114500       0.34038800
   113  C          0.68063000       0.24595130       0.55102000
   114  C          0.81937000       0.74595130       0.94898000
   115  C          0.31937000       0.75404870       0.44898000
   116  C          0.18063000       0.25404870       0.05102000
   117  H          0.65646400       0.22106000       0.47673500
   118  H          0.84353600       0.72106000       0.02326500
   119  H          0.34353600       0.77894000       0.52326500
   120  H          0.15646400       0.27894000       0.97673500
   121  C          0.84663000       0.25658110       0.62002000
   122  C          0.65337000       0.75658110       0.87998000
   123  C          0.15337000       0.74341890       0.37998000
   124  C          0.34663000       0.24341890       0.12002000
   125  C          0.55253000       0.27157130       0.59082000
   126  C          0.94747000       0.77157130       0.90918000
   127  C          0.44747000       0.72842870       0.40918000
   128  C          0.05253000       0.22842870       0.09082000
   129  H          0.44267200       0.26362100       0.54378100
   130  H          0.05732800       0.76362100       0.95621900
   131  H          0.55732800       0.73637900       0.45621900
   132  H          0.94267200       0.23637900       0.04378100
   133  C          0.38453000       0.45772130       0.65542000
   134  C          0.11547000       0.95772130       0.84458000
   135  C          0.61547000       0.54227870       0.34458000
   136  C          0.88453000       0.04227870       0.15542000
   137  C          0.38864000       0.56547140       0.57613000
   138  C          0.11136000       0.06547140       0.92387000
   139  C          0.61136000       0.43452860       0.42387000
   140  C          0.88864000       0.93452860       0.07613000
   141  H          0.35105300       0.60068000       0.51899800
   142  H          0.14894700       0.10068000       0.98100200
   143  H          0.64894700       0.39932000       0.48100200
   144  H          0.85105300       0.89932000       0.01899800
   145  C          0.51944000       0.57076150       0.67653000
   146  C         -0.01944000       0.07076150       0.82347000
   147  C          0.48056000       0.42923850       0.32347000
   148  C          0.01944000       0.92923850       0.17653000
   149  H          0.58519600       0.60956900       0.69764300
   150  H          0.91480400       0.10956900       0.80235700
   151  H          0.41480400       0.39043100       0.30235700
   152  H          0.08519600       0.89043100       0.19764300
