data_JUVGAL
_symmetry_space_group_name_H-M    'P1'
_symmetry_Int_Tables_number       1
loop_
_symmetry_equiv_pos_site_id
_symmetry_equiv_pos_as_xyz
1 x,y,z
_cell_length_a                   8.40313
_cell_length_b                   19.27625
_cell_length_c                   10.96244
_cell_angle_alpha                90.0
_cell_angle_beta                 106.2294
_cell_angle_gamma                90.0
loop_
_atom_site_label
_atom_site_type_symbol
_atom_site_fract_x
_atom_site_fract_y
_atom_site_fract_z
     1  S          0.42046500       0.34230200       0.76596400
     2  S          0.07953500       0.84230200       0.73403600
     3  S          0.57953500       0.65769800       0.23403600
     4  S          0.92046500       0.15769800       0.26596400
     5  S          0.55490600       0.50058300       0.76813500
     6  S          0.94509400       0.00058300       0.73186500
     7  S          0.44509400       0.49941700       0.23186500
     8  S          0.05490600      -0.00058300       0.26813500
     9  O          0.49253150       0.37374700       0.88832110
    10  O          0.00746850       0.87374700       0.61167890
    11  O          0.50746850       0.62625300       0.11167890
    12  O         -0.00746850       0.12625300       0.38832110
    13  O          0.30418150       0.28674700       0.76218140
    14  O          0.19581850       0.78674700       0.73781860
    15  O          0.69581850       0.71325300       0.23781860
    16  O          0.80418150       0.21325300       0.26218140
    17  N          0.32655160       0.39738700       0.66146140
    18  N          0.17344840       0.89738700       0.83853860
    19  N          0.67344840       0.60261300       0.33853860
    20  N          0.82655160       0.10261300       0.16146140
    21  N          0.31870180       0.50513700       0.56698150
    22  N          0.18129820       0.00513700       0.93301850
    23  N          0.68129820       0.49486300       0.43301850
    24  N          0.81870180      -0.00513700       0.06698150
    25  H          0.23521800       0.49181000       0.50521500
    26  H          0.26478200       0.99181000      -0.00521500
    27  H          0.76478200       0.50819000       0.49478500
    28  H          0.73521800       0.00819000       0.00521500
    29  N          0.97632000       0.22616900       0.59884170
    30  N          0.52368000       0.72616900       0.90115830
    31  N          0.02368000       0.77383100       0.40115830
    32  N          0.47632000       0.27383100       0.09884170
    33  H          0.95630000       0.19509000       0.53731600
    34  H          0.54370000       0.69509000       0.96268400
    35  H          0.04370000       0.80491000       0.46268400
    36  H          0.45630000       0.30491000       0.03731600
    37  H          0.07841500       0.23501100       0.64481900
    38  H          0.42158500       0.73501100       0.85518100
    39  H          0.92158500       0.76498900       0.35518100
    40  H          0.57841500       0.26498900       0.14481900
    41  C          0.58429180       0.30860800       0.71444150
    42  C          0.91570820       0.80860800       0.78555850
    43  C          0.41570820       0.69139200       0.28555850
    44  C          0.08429180       0.19139200       0.21444150
    45  C          0.84662000       0.25345800       0.63590160
    46  C          0.65338000       0.75345800       0.86409840
    47  C          0.15338000       0.74654200       0.36409840
    48  C          0.34662000       0.24654200       0.13590160
    49  C          0.74740190       0.32352900       0.78144160
    50  C          0.75259810       0.82352900       0.71855840
    51  C          0.25259810       0.67647100       0.21855840
    52  C          0.24740190       0.17647100       0.28144160
    53  H          0.76939200       0.35175700       0.85301600
    54  H          0.73060800       0.85175700       0.64698400
    55  H          0.23060800       0.64824300       0.14698400
    56  H          0.26939200       0.14824300       0.35301600
    57  C          0.87612000       0.29648900       0.74172160
    58  C          0.62388000       0.79648900       0.75827840
    59  C          0.12388000       0.70351100       0.25827840
    60  C          0.37612000       0.20351100       0.24172160
    61  H         -0.01534800       0.30716300       0.78641600
    62  H          0.51534800       0.80716300       0.71358400
    63  H          0.01534800       0.69283700       0.21358400
    64  H          0.48465200       0.19283700       0.28641600
    65  C          0.38704190       0.46098900       0.66053160
    66  C          0.11295810       0.96098900       0.83946840
    67  C          0.61295810       0.53901100       0.33946840
    68  C          0.88704190       0.03901100       0.16053160
    69  C          0.55332000       0.26740900       0.60683170
    70  C          0.94668000       0.76740900       0.89316830
    71  C          0.44668000       0.73259100       0.39316830
    72  C          0.05332000       0.23259100       0.10683170
    73  H          0.44463400       0.25805800       0.56057300
    74  H          0.05536600       0.75805800       0.93942700
    75  H          0.55536600       0.74194200       0.43942700
    76  H          0.94463400       0.24194200       0.06057300
    77  C          0.68242000       0.24028900       0.56808170
    78  C          0.81758000       0.74028900       0.93191830
    79  C          0.31758000       0.75971100       0.43191830
    80  C          0.18242000       0.25971100       0.06808170
    81  H          0.65996000       0.21274900       0.49560000
    82  H          0.84004000       0.71274900       0.00440000
    83  H          0.34004000       0.78725100       0.50440000
    84  H          0.15996000       0.28725100      -0.00440000
    85  C          0.39433000       0.56919900       0.57552000
    86  C          0.10567000       0.06919900       0.92448000
    87  C          0.60567000       0.43080100       0.42448000
    88  C          0.89433000       0.93080100       0.07552000
    89  H          0.35801100       0.60447500       0.51640500
    90  H          0.14198900       0.10447500       0.98359500
    91  H          0.64198900       0.39552500       0.48359500
    92  H          0.85801100       0.89552500       0.01640500
    93  C          0.52433000       0.57521100       0.67682000
    94  C          0.97567000       0.07521100       0.82318000
    95  C          0.47567000       0.42478900       0.32318000
    96  C          0.02433000       0.92478900       0.17682000
    97  H          0.59053900       0.61457300       0.69622100
    98  H          0.90946100       0.11457300       0.80377900
    99  H          0.40946100       0.38542700       0.30377900
   100  H          0.09053900       0.88542700       0.19622100
   101  Cl         0.86003300       0.56786300       0.03874500
   102  Cl         0.63996700       0.06786300       0.46125500
   103  Cl         0.13996700       0.43213700       0.96125500
   104  Cl         0.36003300       0.93213700       0.53874500
   105  N          0.05786180       0.46594800       0.35870150
   106  N          0.44213820       0.96594800       0.14129850
   107  N          0.94213820       0.53405200       0.64129850
   108  N          0.55786180       0.03405200       0.85870150
   109  C          0.89908000       0.50357800       0.15402170
   110  C          0.60092000       0.00357800       0.34597830
   111  C          0.10092000       0.49642200       0.84597830
   112  C          0.39908000      -0.00357800       0.65402170
   113  C          0.01682000       0.51386900       0.26634170
   114  C          0.48318000       0.01386900       0.23365830
   115  C         -0.01682000       0.48613100       0.73365830
   116  C          0.51682000       0.98613100       0.76634170
   117  H          0.07160300       0.55629400       0.27979800
   118  H          0.42839700       0.05629400       0.22020200
   119  H          0.92839700       0.44370600       0.72020200
   120  H          0.57160300       0.94370600       0.77979800
   121  C          0.97798000       0.40497100       0.33862000
   122  C          0.52202000       0.90497100       0.16138000
   123  C          0.02202000       0.59502900       0.66138000
   124  C          0.47798000       0.09502900       0.83862000
   125  C          0.81478000       0.44098100       0.13331190
   126  C          0.68522000       0.94098100       0.36668810
   127  C          0.18522000       0.55901900       0.86668810
   128  C          0.31478000       0.05901900       0.63331190
   129  H          0.73247700       0.43282100       0.05805300
   130  H          0.76752300       0.93282100       0.44194700
   131  H          0.26752300       0.56717900       0.94194700
   132  H          0.23247700       0.06717900       0.55805300
   133  N          0.01893000       0.35813110       0.43422000
   134  N          0.48107000       0.85813110       0.06578000
   135  N         -0.01893000       0.64186890       0.56578000
   136  N          0.51893000       0.14186890       0.93422000
   137  H          0.97270000       0.31688000       0.42130000
   138  H          0.52730000       0.81688000       0.07870000
   139  H          0.02730000       0.68312000       0.57870000
   140  H          0.47270000       0.18312000       0.92130000
   141  H          0.09830000       0.36981500       0.50320000
   142  H          0.40170000       0.86981500      -0.00320000
   143  H          0.90170000       0.63018500       0.49680000
   144  H          0.59830000       0.13018500       0.00320000
   145  C          0.85527000       0.39180100       0.22562000
   146  C          0.64473000       0.89180100       0.27438000
   147  C          0.14473000       0.60819900       0.77438000
   148  C          0.35527000       0.10819900       0.72562000
   149  H          0.80107300       0.34922300       0.21343300
   150  H          0.69892700       0.84922300       0.28656700
   151  H          0.19892700       0.65077700       0.78656700
   152  H          0.30107300       0.15077700       0.71343300
