data_JUVPAU
_symmetry_space_group_name_H-M    'P1'
_symmetry_Int_Tables_number       1
loop_
_symmetry_equiv_pos_site_id
_symmetry_equiv_pos_as_xyz
1 x,y,z
_cell_length_a                   9.26296
_cell_length_b                   14.01909
_cell_length_c                   18.862017
_cell_angle_alpha                71.8597
_cell_angle_beta                 77.9337
_cell_angle_gamma                78.9345
loop_
_atom_site_label
_atom_site_type_symbol
_atom_site_fract_x
_atom_site_fract_y
_atom_site_fract_z
     1  Cl         0.96501400       0.87009000       0.93793000
     2  Cl         0.03498600       0.12991000       0.06207000
     3  C          0.79640000       0.84331900       0.97848200
     4  C          0.20360000       0.15668100       0.02151800
     5  C          0.79140000       0.73041900       0.01151500
     6  C          0.20860000       0.26958100       0.98848500
     7  Cl         0.86911100       0.68387000       0.08934000
     8  Cl         0.13088900       0.31613000       0.91066000
     9  H          0.84320000       0.69640000       0.97400000
    10  H          0.15680000       0.30360000       0.02600000
    11  H          0.68720000       0.71880000       0.02390000
    12  H          0.31280000       0.28120000       0.97610000
    13  H          0.76230000       0.87510000       0.01910000
    14  H          0.23770000       0.12490000       0.98090000
    15  H          0.72960000       0.87020000       0.94130000
    16  H          0.27040000       0.12980000       0.05870000
    17  C          0.85081300       0.93196000       0.58389000
    18  C          0.14918700       0.06804000       0.41611000
    19  O          0.88261500       0.03061000       0.57067000
    20  O          0.11738500       0.96939000       0.42933000
    21  C         -0.00098100       0.04181600       0.60219000
    22  C          0.00098100       0.95818400       0.39781000
    23  C          0.96320000       0.01701900       0.68609000
    24  C          0.03680000       0.98298100       0.31391000
    25  O          0.81911700       0.06001000       0.70817000
    26  O          0.18088300       0.93999000       0.29183000
    27  C          0.78520000       0.05981700       0.78601100
    28  C          0.21480000       0.94018300       0.21398900
    29  C          0.61920000       0.07701300       0.80521100
    30  C          0.38080000       0.92298700       0.19478900
    31  O          0.56991900       0.17281000       0.76127000
    32  O          0.43008100       0.82719000       0.23873000
    33  C          0.41730000       0.18771800       0.76511300
    34  C          0.58270000       0.81228200       0.23488700
    35  C          0.35030000       0.13820000       0.72251100
    36  C          0.64970000       0.86180000       0.27748900
    37  O          0.43320000       0.15251300       0.65079000
    38  O          0.56680000       0.84748700       0.34921000
    39  C          0.38420000       0.11251200       0.60281300
    40  C          0.61580000       0.88748800       0.39718700
    41  C          0.45921500       0.00851100       0.60251100
    42  C          0.54078500       0.99148900       0.39748900
    43  O          0.61051400       0.01278000       0.57767000
    44  O          0.38948600       0.98722000       0.42233000
    45  C          0.70411200       0.92416000       0.58638000
    46  C          0.29588800       0.07584000       0.41362000
    47  C          0.66519000       0.83026000       0.59408000
    48  C          0.33481000       0.16974000       0.40592000
    49  C          0.77399000       0.74625000       0.60056000
    50  C          0.22601000       0.25375000       0.39944000
    51  C          0.91951000       0.75257000       0.60221000
    52  C          0.08049000       0.24743000       0.39779000
    53  C          0.95791100       0.84728000       0.59171000
    54  C          0.04208900       0.15272000       0.40829000
    55  C          0.70281900       0.48181200       0.04934000
    56  C          0.29718100       0.51818800       0.95066000
    57  O          0.69021700       0.53511000       0.97594000
    58  O          0.30978300       0.46489000       0.02406000
    59  C          0.80320000       0.51791600       0.91763000
    60  C          0.19680000       0.48208400       0.08237000
    61  C          0.77230000       0.59621000       0.84612000
    62  C          0.22770000       0.40379000       0.15388000
    63  O          0.77931800       0.69381000       0.84773000
    64  O          0.22068200       0.30619000       0.15227000
    65  C          0.70920000       0.77411400       0.79641000
    66  C          0.29080000       0.22588600       0.20359000
    67  C          0.54620000       0.79441800       0.82329000
    68  C          0.45380000       0.20558200       0.17671000
    69  O          0.52231800       0.83621100       0.88312000
    70  O          0.47768200       0.16378900       0.11688000
    71  C          0.37481900       0.85020000       0.91778800
    72  C          0.62518100       0.14980000       0.08221200
    73  C          0.36030000       0.88781600       0.98511000
    74  C          0.63970000       0.11218400       0.01489000
    75  O          0.41971700       0.81571000       0.04537000
    76  O          0.58028300       0.18429000       0.95463000
    77  C          0.32720000       0.74491300       0.09011100
    78  C          0.67280000       0.25508700       0.90988900
    79  C          0.41630000       0.65171400       0.13169000
    80  C          0.58370000       0.34828600       0.86831000
    81  O          0.50181600       0.60271000       0.07966000
    82  O          0.49818400       0.39729000       0.92034000
    83  C          0.60561800       0.51931100       0.10345000
    84  C          0.39438200       0.48068900       0.89655000
    85  C          0.61281500       0.47061100       0.17934000
    86  C          0.38718500       0.52938900       0.82066000
    87  C          0.72391200       0.39008000       0.19894000
    88  C          0.27608800       0.60992000       0.80106000
    89  C          0.82241900       0.35221200       0.14515000
    90  C          0.17758100       0.64778800       0.85485000
    91  C          0.81191900       0.40041200       0.06955000
    92  C          0.18808100       0.59958800       0.93045000
    93  N          0.72501200       0.34597000       0.28033000
    94  N          0.27498800       0.65403000       0.71967000
    95  C          0.74641900       0.39308000       0.33274000
    96  C          0.25358100       0.60692000       0.66726000
    97  C          0.70511600       0.32457000       0.39894000
    98  C          0.29488400       0.67543000       0.60106000
    99  N          0.67420000       0.23997000       0.38924000
   100  N          0.32580000       0.76003000       0.61076000
   101  N          0.68220000       0.25548000       0.31534000
   102  N          0.31780000       0.74452000       0.68466000
   103  I          0.84915190       0.52255100       0.29864700
   104  I          0.15084810       0.47744900       0.70135300
   105  C          0.69820000       0.32907000       0.47674000
   106  C          0.30180000       0.67093000       0.52326000
   107  C          0.69441900       0.42396000       0.49234000
   108  C          0.30558100       0.57604000       0.50766000
   109  C          0.68981700       0.41896000       0.57025000
   110  C          0.31018300       0.58104000       0.42975000
   111  C          0.69720000       0.32838000       0.62214000
   112  C          0.30280000       0.67162000       0.37786000
   113  N          0.70220000       0.24236000       0.60445000
   114  N          0.29780000       0.75764000       0.39555000
   115  C          0.70330000       0.24306000       0.53356000
   116  C          0.29670000       0.75694000       0.46644000
   117  C          0.69091400       0.51116000       0.59274000
   118  C          0.30908600       0.48884000       0.40726000
   119  C          0.75961700       0.59317000       0.55435000
   120  C          0.24038300       0.40683000       0.44565000
   121  N          0.72221000       0.65105000       0.60644000
   122  N          0.27779000       0.34895000       0.39356000
   123  N          0.64641600       0.60147000       0.67075000
   124  N          0.35358400       0.39853000       0.32925000
   125  N          0.62251500       0.51527000       0.66235000
   126  N          0.37748500       0.48473000       0.33765000
   127  I          0.88201160       0.64543900       0.44738600
   128  I          0.11798840       0.35456100       0.55261400
   129  H          0.01970000       0.11140000       0.58130000
   130  H          0.98030000       0.88860000       0.41870000
   131  H          0.08690000      -0.00380000       0.58890000
   132  H          0.91310000       0.00380000       0.41110000
   133  H          0.03230000       0.04480000       0.70390000
   134  H          0.96770000       0.95520000       0.29610000
   135  H          0.97390000       0.94410000       0.70760000
   136  H          0.02610000       0.05590000       0.29240000
   137  H          0.82760000       0.11390000       0.79250000
   138  H          0.17240000       0.88610000       0.20750000
   139  H          0.82470000      -0.00480000       0.81760000
   140  H          0.17530000       0.00480000       0.18240000
   141  H          0.59120000       0.07400000       0.85820000
   142  H          0.40880000       0.92600000       0.14180000
   143  H          0.57640000       0.02560000       0.79490000
   144  H          0.42360000       0.97440000       0.20510000
   145  H          0.38670000       0.25980000       0.74520000
   146  H          0.61330000       0.74020000       0.25480000
   147  H          0.37370000       0.16530000       0.81780000
   148  H          0.62630000       0.83470000       0.18220000
   149  H          0.24720000       0.16690000       0.71960000
   150  H          0.75280000       0.83310000       0.28040000
   151  H          0.35610000       0.06630000       0.74790000
   152  H          0.64390000       0.93370000       0.25210000
   153  H          0.39970000       0.15760000       0.55200000
   154  H          0.60030000       0.84240000       0.44800000
   155  H          0.27760000       0.10940000       0.61950000
   156  H          0.72240000       0.89060000       0.38050000
   157  H          0.44410000       0.96310000       0.65310000
   158  H          0.55590000       0.03690000       0.34690000
   159  H          0.41830000       0.98450000       0.56880000
   160  H          0.58170000       0.01550000       0.43120000
   161  H          0.56690000       0.82420000       0.59470000
   162  H          0.43310000       0.17580000       0.40530000
   163  H          0.98920000       0.69460000       0.61050000
   164  H          0.01080000       0.30540000       0.38950000
   165  H          0.05730000       0.85300000       0.59010000
   166  H          0.94270000       0.14700000       0.40990000
   167  H          0.89830000       0.52300000       0.92860000
   168  H          0.10170000       0.47700000       0.07140000
   169  H          0.80380000       0.45080000       0.91290000
   170  H          0.19620000       0.54920000       0.08710000
   171  H          0.84420000       0.58140000       0.80440000
   172  H          0.15580000       0.41860000       0.19560000
   173  H          0.67250000       0.59290000       0.83910000
   174  H          0.32750000       0.40710000       0.16090000
   175  H          0.75250000       0.83440000       0.78950000
   176  H          0.24750000       0.16560000       0.21050000
   177  H          0.72300000       0.75850000       0.74880000
   178  H          0.27700000       0.24150000       0.25120000
   179  H          0.49790000       0.84190000       0.78220000
   180  H          0.50210000       0.15810000       0.21780000
   181  H          0.50300000       0.73140000       0.83980000
   182  H          0.49700000       0.26860000       0.16020000
   183  H          0.31700000       0.89830000       0.88130000
   184  H          0.68300000       0.10170000       0.11870000
   185  H          0.33690000       0.78530000       0.93420000
   186  H          0.66310000       0.21470000       0.06580000
   187  H          0.41220000       0.94640000       0.97030000
   188  H          0.58780000       0.05360000       0.02970000
   189  H          0.25480000       0.90770000       0.00170000
   190  H          0.74520000       0.09230000      -0.00170000
   191  H          0.25630000       0.77400000       0.12630000
   192  H          0.74370000       0.22600000       0.87370000
   193  H          0.27240000       0.72670000       0.05850000
   194  H          0.72760000       0.27330000       0.94150000
   195  H          0.48090000       0.67010000       0.15790000
   196  H          0.51910000       0.32990000       0.84210000
   197  H          0.35010000       0.60680000       0.16760000
   198  H          0.64990000       0.39320000       0.83240000
   199  H          0.54350000       0.49190000       0.21680000
   200  H          0.45650000       0.50810000       0.78320000
   201  H          0.89300000       0.29630000       0.15910000
   202  H          0.10700000       0.70370000       0.84090000
   203  H          0.88040000       0.37830000       0.03210000
   204  H          0.11960000       0.62170000       0.96790000
   205  H          0.69270000       0.48500000       0.45450000
   206  H          0.30730000       0.51500000       0.54550000
   207  H          0.69690000       0.32560000       0.67190000
   208  H          0.30310000       0.67440000       0.32810000
   209  H          0.70430000       0.18230000       0.52310000
   210  H          0.29570000       0.81770000       0.47690000
   211  H          0.69180000       0.18210000       0.64470000
   212  H          0.30820000       0.81790000       0.35530000
   213  Cl         0.02537000       0.70005000       0.27943000
   214  Cl         0.97463000       0.29995000       0.72057000
