data_JUWHIU
_symmetry_space_group_name_H-M    'P1'
_symmetry_Int_Tables_number       1
loop_
_symmetry_equiv_pos_site_id
_symmetry_equiv_pos_as_xyz
1 x,y,z
_cell_length_a                   12.70215
_cell_length_b                   5.04012
_cell_length_c                   19.12168
_cell_angle_alpha                90.0
_cell_angle_beta                 98.9513
_cell_angle_gamma                90.0
loop_
_atom_site_label
_atom_site_type_symbol
_atom_site_fract_x
_atom_site_fract_y
_atom_site_fract_z
     1  O          0.87153900       0.78027000       0.43756600
     2  O          0.62846100       0.28027000       0.06243400
     3  O          0.12846100       0.21973000       0.56243400
     4  O          0.37153900       0.71973000       0.93756600
     5  H          0.82100000       0.67750000       0.42980000
     6  H          0.67900000       0.17750000       0.07020000
     7  H          0.17900000       0.32250000       0.57020000
     8  H          0.32100000       0.82250000       0.92980000
     9  N          0.86967880       0.95137000       0.38048800
    10  N          0.63032120       0.45137000       0.11951200
    11  N          0.13032120       0.04863000       0.61951200
    12  N          0.36967880       0.54863000       0.88048800
    13  N          0.97246890       0.67213000       0.22414700
    14  N          0.52753110       0.17213000       0.27585300
    15  N          0.02753110       0.32787000       0.77585300
    16  N          0.47246890       0.82787000       0.72414700
    17  C          0.94431850       0.11934000       0.38996100
    18  C          0.55568150       0.61934000       0.11003900
    19  C          0.05568150       0.88066000       0.61003900
    20  C          0.44431850       0.38066000       0.88996100
    21  H         -0.00790000       0.12040000       0.43210000
    22  H          0.50790000       0.62040000       0.06790000
    23  H          0.00790000       0.87960000       0.56790000
    24  H          0.49210000       0.37960000       0.93210000
    25  C          0.95516860       0.31274000       0.33411900
    26  C          0.54483140       0.81274000       0.16588100
    27  C          0.04483140       0.68726000       0.66588100
    28  C          0.45516860       0.18726000       0.83411900
    29  C          0.87931860       0.32854000       0.27442900
    30  C          0.62068140       0.82854000       0.22557100
    31  C          0.12068140       0.67146000       0.72557100
    32  C          0.37931860       0.17146000       0.77442900
    33  H          0.82050000       0.21640000       0.26940000
    34  H          0.67950000       0.71640000       0.23060000
    35  H          0.17950000       0.78360000       0.73060000
    36  H          0.32050000       0.28360000       0.76940000
    37  C          0.89033850       0.51164000       0.22169100
    38  C          0.60966150       0.01164000       0.27830900
    39  C          0.10966150       0.48836000       0.77830900
    40  C          0.39033850      -0.01164000       0.72169100
    41  H          0.83680000       0.52110000       0.18260000
    42  H          0.66320000       0.02110000       0.31740000
    43  H          0.16320000       0.47890000       0.81740000
    44  H          0.33680000      -0.02110000       0.68260000
    45  C          0.13793150       0.83844000       0.28449110
    46  C          0.36206850       0.33844000       0.21550890
    47  C          0.86206850       0.16156000       0.71550890
    48  C          0.63793150       0.66156000       0.78449110
    49  H          0.14290000       0.94880000       0.24620000
    50  H          0.35710000       0.44880000       0.25380000
    51  H          0.85710000       0.05120000       0.75380000
    52  H          0.64290000       0.55120000       0.74620000
    53  C          0.21486180       0.84475000       0.34248140
    54  C          0.28513820       0.34475000       0.15751860
    55  C          0.78513820       0.15525000       0.65751860
    56  C          0.71486180       0.65525000       0.84248140
    57  H          0.27290000       0.95790000       0.34360000
    58  H          0.22710000       0.45790000       0.15640000
    59  H          0.72710000       0.04210000       0.65640000
    60  H          0.77290000       0.54210000       0.84360000
    61  C          0.20684180       0.68125000       0.40050130
    62  C          0.29315820       0.18125000       0.09949870
    63  C          0.79315820       0.31875000       0.59949870
    64  C          0.70684180       0.81875000       0.90050130
    65  H          0.25840000       0.69280000       0.44060000
    66  H          0.24160000       0.19280000       0.05940000
    67  H          0.74160000       0.30720000       0.55940000
    68  H          0.75840000       0.80720000       0.94060000
    69  C          0.12531170       0.50564000       0.39959120
    70  C          0.37468830       0.00564000       0.10040880
    71  C          0.87468830       0.49436000       0.60040880
    72  C          0.62531170      -0.00564000       0.89959120
    73  H          0.12300000       0.39530000       0.43830000
    74  H          0.37700000       0.89530000       0.06170000
    75  H          0.87700000       0.60470000       0.56170000
    76  H          0.62300000       0.10470000       0.93830000
    77  C          0.04357130       0.48984000       0.33975100
    78  C          0.45642870      -0.01016000       0.16024900
    79  C          0.95642870       0.51016000       0.66024900
    80  C          0.54357130       0.01016000       0.83975100
    81  C          0.05074140       0.66474000       0.28249900
    82  C          0.44925860       0.16474000       0.21750100
    83  C          0.94925860       0.33526000       0.71750100
    84  C          0.55074140       0.83526000       0.78249900
    85  O          0.51894100       0.50753000       0.37525700
    86  O          0.98105900       0.00753000       0.12474300
    87  O          0.48105900       0.49247000       0.62474300
    88  O          0.01894100      -0.00753000       0.87525700
    89  H          0.52730000       0.40770000       0.34270000
    90  H          0.97270000       0.90770000       0.15730000
    91  H          0.47270000       0.59230000       0.65730000
    92  H          0.02730000       0.09230000       0.84270000
    93  O          0.69544100       0.48283000       0.39777800
    94  O          0.80455900      -0.01717000       0.10222200
    95  O          0.30455900       0.51717000       0.60222200
    96  O          0.19544100       0.01717000       0.89777800
    97  C          0.61063140       0.57914000       0.40853900
    98  C          0.88936860       0.07914000       0.09146100
    99  C          0.38936860       0.42086000       0.59146100
   100  C          0.11063140       0.92086000       0.90853900
   101  C          0.60787140       0.79534000       0.46286900
   102  C          0.89212860       0.29534000       0.03713100
   103  C          0.39212860       0.20466000       0.53713100
   104  C          0.10787140       0.70466000       0.96286900
   105  H          0.65040000       0.94310000       0.45060000
   106  H          0.84960000       0.44310000       0.04940000
   107  H          0.34960000       0.05690000       0.54940000
   108  H          0.15040000       0.55690000       0.95060000
   109  H          0.64150000       0.72860000       0.50850000
   110  H          0.85850000       0.22860000       0.99150000
   111  H          0.35850000       0.27140000       0.49150000
   112  H          0.14150000       0.77140000       0.00850000
   113  C          0.49830130       0.89884000       0.47062900
   114  C          0.00169870       0.39884000       0.02937100
   115  C          0.50169870       0.10116000       0.52937100
   116  C         -0.00169870       0.60116000       0.97062900
   117  H          0.46610000      -0.02100000       0.42630000
   118  H          0.03390000       0.47900000       0.07370000
   119  H          0.53390000       0.02100000       0.57370000
   120  H          0.96610000       0.52100000       0.92630000
   121  H          0.45370000       0.75110000       0.48020000
   122  H          0.04630000       0.25110000       0.01980000
   123  H          0.54630000       0.24890000       0.51980000
   124  H          0.95370000       0.74890000       0.98020000
