data_JUWHOA
_symmetry_space_group_name_H-M    'P1'
_symmetry_Int_Tables_number       1
loop_
_symmetry_equiv_pos_site_id
_symmetry_equiv_pos_as_xyz
1 x,y,z
_cell_length_a                   12.79155
_cell_length_b                   5.00092
_cell_length_c                   16.48297
_cell_angle_alpha                90.0
_cell_angle_beta                 90.9263
_cell_angle_gamma                90.0
loop_
_atom_site_label
_atom_site_type_symbol
_atom_site_fract_x
_atom_site_fract_y
_atom_site_fract_z
     1  C          0.94401860       0.59724000       0.33104110
     2  C          0.55598140       0.09724000       0.16895890
     3  C          0.05598140       0.40276000       0.66895890
     4  C          0.44401860       0.90276000       0.83104110
     5  C          0.03755140       0.44094000       0.33830110
     6  C          0.46244860       0.94094000       0.16169890
     7  C          0.96244860       0.55906000       0.66169890
     8  C          0.53755140       0.05906000       0.83830110
     9  C          0.11384150       0.46964000       0.40088120
    10  C          0.38615850       0.96964000       0.09911880
    11  C          0.88615850       0.53036000       0.59911880
    12  C          0.61384150       0.03036000       0.90088120
    13  H          0.10420000       0.59870000       0.44070000
    14  H          0.39580000       0.09870000       0.05930000
    15  H          0.89580000       0.40130000       0.55930000
    16  H          0.60420000       0.90130000       0.94070000
    17  C          0.05564130       0.24174000       0.27875110
    18  C          0.44435870       0.74174000       0.22124890
    19  C          0.94435870       0.75826000       0.72124890
    20  C          0.55564130       0.25826000       0.77875110
    21  C          0.87660860       0.54494000       0.26783110
    22  C          0.62339140       0.04494000       0.23216890
    23  C          0.12339140       0.45506000       0.73216890
    24  C          0.37660860       0.95506000       0.76783110
    25  H          0.81560000       0.64440000       0.26170000
    26  H          0.68440000       0.14440000       0.23830000
    27  H          0.18440000       0.35560000       0.73830000
    28  H          0.31560000       0.85560000       0.76170000
    29  C          0.92245850       0.81024000       0.39004120
    30  C          0.57754150       0.31024000       0.10995880
    31  C          0.07754150       0.18976000       0.60995880
    32  C          0.42245850       0.68976000       0.89004120
    33  H          0.97060000       0.84730000       0.43140000
    34  H          0.52940000       0.34730000       0.06860000
    35  H          0.02940000       0.15270000       0.56860000
    36  H          0.47060000       0.65270000       0.93140000
    37  C          0.89919850       0.34264000       0.21259110
    38  C          0.60080150       0.84264000       0.28740890
    39  C          0.10080150       0.65736000       0.78740890
    40  C          0.39919850       0.15736000       0.71259110
    41  H          0.85130000       0.30840000       0.17080000
    42  H          0.64870000       0.80840000       0.32920000
    43  H          0.14870000       0.69160000       0.82920000
    44  H          0.35130000       0.19160000       0.67080000
    45  C          0.14637140       0.08164000       0.28345120
    46  C          0.35362860       0.58164000       0.21654880
    47  C          0.85362860       0.91836000       0.71654880
    48  C          0.64637140       0.41836000       0.78345120
    49  H          0.15770000       0.95140000       0.24430000
    50  H          0.34230000       0.45140000       0.25570000
    51  H          0.84230000       0.04860000       0.75570000
    52  H          0.65770000       0.54860000       0.74430000
    53  C          0.20092150       0.31324000       0.40434130
    54  C          0.29907850       0.81324000       0.09565870
    55  C          0.79907850       0.68676000       0.59565870
    56  C          0.70092150       0.18676000       0.90434130
    57  H          0.24970000       0.33640000       0.44620000
    58  H          0.25030000       0.83640000       0.05380000
    59  H          0.75030000       0.66360000       0.55380000
    60  H          0.74970000       0.16360000       0.94620000
    61  C          0.21740150       0.11665000       0.34490130
    62  C          0.28259850       0.61665000       0.15509870
    63  C          0.78259850       0.88335000       0.65509870
    64  C          0.71740150       0.38335000       0.84490130
    65  H          0.27700000       0.01020000       0.34760000
    66  H          0.22300000       0.51020000       0.15240000
    67  H          0.72300000      -0.01020000       0.65240000
    68  H          0.77700000       0.48980000       0.84760000
    69  N          0.98522880       0.19743000       0.21667900
    70  N          0.51477120       0.69743000       0.28332100
    71  N          0.01477120       0.80257000       0.78332100
    72  N          0.48522880       0.30257000       0.71667900
    73  N          0.83814880       0.94324000       0.38452900
    74  N          0.66185120       0.44324000       0.11547100
    75  N          0.16185120       0.05676000       0.61547100
    76  N          0.33814880       0.55676000       0.88452900
    77  O          0.83212900       0.13583000       0.44484800
    78  O          0.66787100       0.63583000       0.05515200
    79  O          0.16787100       0.86417000       0.55515200
    80  O          0.33212900       0.36417000       0.94484800
    81  H          0.77560000       0.21230000       0.44140000
    82  H          0.72440000       0.71230000       0.05860000
    83  H          0.22440000       0.78770000       0.55860000
    84  H          0.27560000       0.28770000       0.94140000
    85  C          0.94744140       0.55764000       0.00580120
    86  C          0.55255860       0.05764000       0.49419880
    87  C          0.05255860       0.44236000      -0.00580120
    88  C          0.44744140       0.94236000       0.50580120
    89  H          0.90070000       0.41320000       0.02030000
    90  H          0.59930000       0.91320000       0.47970000
    91  H          0.09930000       0.58680000       0.97970000
    92  H          0.40070000       0.08680000       0.52030000
    93  H          0.92300000       0.62780000       0.95400000
    94  H          0.57700000       0.12780000       0.54600000
    95  H          0.07700000       0.37220000       0.04600000
    96  H          0.42300000       0.87220000       0.45400000
    97  C          0.93688150       0.77484000       0.06797120
    98  C          0.56311850       0.27484000       0.43202880
    99  C          0.06311850       0.22516000       0.93202880
   100  C          0.43688150       0.72516000       0.56797120
   101  O          0.02150100       0.84663000       0.10539900
   102  O          0.47849900       0.34663000       0.39460100
   103  O          0.97849900       0.15337000       0.89460100
   104  O          0.52150100       0.65337000       0.60539900
   105  H          0.00710000       0.94840000       0.14260000
   106  H          0.49290000       0.44840000       0.35740000
   107  H         -0.00710000       0.05160000       0.85740000
   108  H          0.50710000       0.55160000       0.64260000
   109  O          0.85063100       0.87523000       0.08136900
   110  O          0.64936900       0.37523000       0.41863100
   111  O          0.14936900       0.12477000       0.91863100
   112  O          0.35063100       0.62477000       0.58136900
