data_JUZCEP
_symmetry_space_group_name_H-M    'P1'
_symmetry_Int_Tables_number       1
loop_
_symmetry_equiv_pos_site_id
_symmetry_equiv_pos_as_xyz
1 x,y,z
_cell_length_a                   3.833901
_cell_length_b                   22.19506
_cell_length_c                   15.36954
_cell_angle_alpha                90.0
_cell_angle_beta                 93.41201
_cell_angle_gamma                90.0
loop_
_atom_site_label
_atom_site_type_symbol
_atom_site_fract_x
_atom_site_fract_y
_atom_site_fract_z
     1  S          0.21977180       0.42480300       0.53049400
     2  S          0.78022820       0.92480300       0.96950600
     3  S          0.78022820       0.57519700       0.46950600
     4  S          0.21977180       0.07519700       0.03049400
     5  N          0.41715000       0.23873800       0.40285110
     6  N          0.58285000       0.73873800       0.09714890
     7  N          0.58285000       0.76126200       0.59714890
     8  N          0.41715000       0.26126200       0.90285110
     9  H          0.49560000       0.26631100       0.36891500
    10  H          0.50440000       0.76631100       0.13108500
    11  H          0.50440000       0.73368900       0.63108500
    12  H          0.49560000       0.23368900       0.86891500
    13  N          0.12535000       0.32000800       0.59360120
    14  N          0.87465000       0.82000800       0.90639880
    15  N          0.87465000       0.67999200       0.40639880
    16  N          0.12535000       0.17999200       0.09360120
    17  N          0.20375000       0.20232800       0.51969110
    18  N          0.79625000       0.70232800       0.98030890
    19  N          0.79625000       0.79767200       0.48030890
    20  N          0.20375000       0.29767200       0.01969110
    21  H          0.10560000       0.20091000       0.56581600
    22  H          0.89440000       0.70091000       0.93418400
    23  H          0.89440000       0.79909000       0.43418400
    24  H          0.10560000       0.29909000       0.06581600
    25  C          0.10336000       0.37710100       0.61016150
    26  C          0.89664000       0.87710100       0.88983850
    27  C          0.89664000       0.62289900       0.38983850
    28  C          0.10336000       0.12289900       0.11016150
    29  H          0.02783500       0.39118800       0.66283900
    30  H         -0.02783500       0.89118800       0.83716100
    31  H         -0.02783500       0.60881200       0.33716100
    32  H          0.02783500       0.10881200       0.16283900
    33  C          0.31106000       0.36466100       0.46828150
    34  C          0.68894000       0.86466100       0.03171850
    35  C          0.68894000       0.63533900       0.53171850
    36  C          0.31106000       0.13533900       0.96828150
    37  H          0.39362500       0.36681500       0.41268600
    38  H          0.60637500       0.86681500       0.08731400
    39  H          0.60637500       0.63318500       0.58731400
    40  H          0.39362500       0.13318500       0.91268600
    41  C          0.24615000       0.31279900       0.51119130
    42  C          0.75385000       0.81279900       0.98880870
    43  C          0.75385000       0.68720100       0.48880870
    44  C          0.24615000       0.18720100       0.01119130
    45  C          0.28855000       0.25233900       0.47856120
    46  C          0.71145000       0.75233900       0.02143880
    47  C          0.71145000       0.74766100       0.52143880
    48  C          0.28855000       0.24766100       0.97856120
    49  C          0.28165000       0.15321900       0.46826130
    50  C          0.71835000       0.65321900       0.03173870
    51  C          0.71835000       0.84678100       0.53173870
    52  C          0.28165000       0.34678100       0.96826130
    53  C          0.41485000       0.17639900       0.39372130
    54  C          0.58515000       0.67639900       0.10627870
    55  C          0.58515000       0.82360100       0.60627870
    56  C          0.41485000       0.32360100       0.89372130
    57  C          0.51406000       0.13935110       0.32747140
    58  C          0.48594000       0.63935110       0.17252860
    59  C          0.48594000       0.86064890       0.67252860
    60  C          0.51406000       0.36064890       0.82747140
    61  H          0.60379800       0.15495800       0.27728500
    62  H          0.39620200       0.65495800       0.22271500
    63  H          0.39620200       0.84504200       0.72271500
    64  H          0.60379800       0.34504200       0.77728500
    65  C          0.47476000       0.07880110       0.33881160
    66  C          0.52524000       0.57880110       0.16118840
    67  C          0.52524000       0.92119890       0.66118840
    68  C          0.47476000       0.42119890       0.83881160
    69  H          0.53644800       0.05289000       0.29472500
    70  H          0.46355200       0.55289000       0.20527500
    71  H          0.46355200       0.94711000       0.70527500
    72  H          0.53644800       0.44711000       0.79472500
    73  C          0.34476000       0.05416110       0.41440150
    74  C          0.65524000       0.55416110       0.08559850
    75  C          0.65524000       0.94583890       0.58559850
    76  C          0.34476000       0.44583890       0.91440150
    77  H          0.32456900       0.01261300       0.42015300
    78  H          0.67543100       0.51261300       0.07984700
    79  H          0.67543100       0.98738700       0.57984700
    80  H          0.32456900       0.48738700       0.92015300
    81  C          0.24586000       0.09200100       0.48076150
    82  C          0.75414000       0.59200100       0.01923850
    83  C          0.75414000       0.90799900       0.51923850
    84  C          0.24586000       0.40799900       0.98076150
    85  H          0.15917900       0.07666700       0.53149500
    86  H          0.84082100       0.57666700       0.96850500
    87  H          0.84082100       0.92333300       0.46850500
    88  H          0.15917900       0.42333300       0.03149500
    89  O          0.90745000       0.32947700       0.16673100
    90  O          0.09255000       0.82947700       0.33326900
    91  O          0.09255000       0.67052300       0.83326900
    92  O          0.90745000       0.17052300       0.66673100
    93  O          0.70225000       0.31338700       0.29570100
    94  O          0.29775000       0.81338700       0.20429900
    95  O          0.29775000       0.68661300       0.70429900
    96  O          0.70225000       0.18661300       0.79570100
    97  C          0.76196000       0.29835110       0.22140140
    98  C          0.23804000       0.79835110       0.27859860
    99  C          0.23804000       0.70164890       0.77859860
   100  C          0.76196000       0.20164890       0.72140140
   101  H          0.69150700       0.25985900       0.20407200
   102  H          0.30849300       0.75985900       0.29592800
   103  H          0.30849300       0.74014100       0.79592800
   104  H          0.69150700       0.24014100       0.70407200
   105  O          0.11546000       0.49910900       0.32259140
   106  O          0.88454000      -0.00089100       0.17740860
   107  O          0.88454000       0.50089100       0.67740860
   108  O          0.11546000       0.00089100       0.82259140
   109  O          0.14567000       0.43313900       0.21881160
   110  O          0.85433000       0.93313900       0.28118840
   111  O          0.85433000       0.56686100       0.78118840
   112  O          0.14567000       0.06686100       0.71881160
   113  H          0.06011000       0.39720000       0.20230000
   114  H          0.93989000       0.89720000       0.29770000
   115  H          0.93989000       0.60280000       0.79770000
   116  H          0.06011000       0.10280000       0.70230000
   117  C          0.01617000       0.45477110       0.28566160
   118  C         -0.01617000       0.95477110       0.21433840
   119  C         -0.01617000       0.54522890       0.71433840
   120  C          0.01617000       0.04522890       0.78566160
   121  H          0.82855900       0.43441100       0.30768000
   122  H          0.17144100       0.93441100       0.19232000
   123  H          0.17144100       0.56558900       0.69232000
   124  H          0.82855900       0.06558900       0.80768000
