data_KACXUJ
_symmetry_space_group_name_H-M    'P1'
_symmetry_Int_Tables_number       1
loop_
_symmetry_equiv_pos_site_id
_symmetry_equiv_pos_as_xyz
1 x,y,z
_cell_length_a                   12.18514
_cell_length_b                   12.77564
_cell_length_c                   15.76665
_cell_angle_alpha                82.46501
_cell_angle_beta                 77.97801
_cell_angle_gamma                70.32001
loop_
_atom_site_label
_atom_site_type_symbol
_atom_site_fract_x
_atom_site_fract_y
_atom_site_fract_z
     1  S          0.27275400       0.20753400       0.35908300
     2  S          0.72724600       0.79246600       0.64091700
     3  S          0.13713400       0.96958600       0.13699300
     4  S          0.86286600       0.03041400       0.86300700
     5  S          0.69329400       0.80850600       0.17449300
     6  S          0.30670600       0.19149400       0.82550700
     7  C          0.93662180       0.36621160       0.12267130
     8  C          0.06337820       0.63378840       0.87732870
     9  H          0.97970000       0.34400000       0.16930000
    10  H          0.02030000       0.65600000       0.83070000
    11  C          0.88682000       0.47871170       0.09997150
    12  C          0.11318000       0.52128830       0.90002850
    13  H          0.89640000       0.53310000       0.13090000
    14  H          0.10360000       0.46690000       0.86910000
    15  C          0.82352000       0.51169170       0.03261150
    16  C          0.17648000       0.48830830       0.96738850
    17  H          0.78880000       0.58870000       0.01760000
    18  H          0.21120000       0.41130000       0.98240000
    19  C          0.81072000       0.43223170       0.98682850
    20  C          0.18928000       0.56776830       0.01317150
    21  H          0.76770000       0.45490000       0.94020000
    22  H          0.23230000       0.54510000       0.05980000
    23  C          0.86065190       0.31959160       0.00890130
    24  C          0.13934810       0.68040840      -0.00890130
    25  H          0.85180000       0.26550000       0.97720000
    26  H          0.14820000       0.73450000       0.02280000
    27  C          0.92353160       0.28563140       0.07724120
    28  C          0.07646840       0.71436860       0.92275880
    29  C          0.97039150       0.16484140       0.10346110
    30  C          0.02960850       0.83515860       0.89653890
    31  C          0.08377150       0.11276150       0.11510120
    32  C          0.91622850       0.88723850       0.88489880
    33  C          0.17912180       0.16724190       0.10338160
    34  C          0.82087820       0.83275810       0.89661840
    35  H          0.16070000       0.23310000       0.06270000
    36  H          0.83930000       0.76690000       0.93730000
    37  H          0.25580000       0.11430000       0.08020000
    38  H          0.74420000       0.88570000       0.91980000
    39  H          0.18260000       0.18970000       0.15960000
    40  H          0.81740000       0.81030000       0.84040000
    41  C          0.00905150       0.93538850       0.16864120
    42  C          0.99094850       0.06461150       0.83135880
    43  H          0.01210000       0.86610000       0.20020000
    44  H          0.98790000       0.13390000       0.79980000
    45  C          0.90411150       0.00433130       0.14995110
    46  C          0.09588850      -0.00433130       0.85004890
    47  C          0.79887140       0.96499870       0.17181110
    48  C          0.20112860       0.03500130       0.82818890
    49  C          0.80622160       0.86562860       0.14620120
    50  C          0.19377840       0.13437140       0.85379880
    51  H          0.87740000       0.82520000       0.11080000
    52  H          0.12260000       0.17480000       0.88920000
    53  C          0.58224160       0.91396850       0.22800120
    54  C          0.41775840       0.08603150       0.77199880
    55  H          0.50600000       0.90570000       0.24560000
    56  H          0.49400000       0.09430000       0.75440000
    57  C          0.59745140       0.00794130       0.24642110
    58  C          0.40254860      -0.00794130       0.75357890
    59  C          0.50159140       0.08817130       0.30379110
    60  C          0.49840860       0.91182870       0.69620890
    61  C          0.38798150       0.12143140       0.29171120
    62  C          0.61201850       0.87856860       0.70828880
    63  H          0.37090000       0.09590000       0.24350000
    64  H          0.62910000       0.90410000       0.75650000
    65  C          0.25852180       0.30409180       0.50664140
    66  C          0.74147820       0.69590820       0.49335860
    67  H          0.29040000       0.28310000       0.56080000
    68  H          0.70960000       0.71690000       0.43920000
    69  H          0.18140000       0.29230000       0.51530000
    70  H          0.81860000       0.70770000       0.48470000
    71  H          0.24910000       0.38280000       0.48970000
    72  H          0.75090000       0.61720000       0.51030000
    73  C          0.34261150       0.23343140       0.43595120
    74  C          0.65738850       0.76656860       0.56404880
    75  C          0.46183150       0.18971130       0.43182110
    76  C          0.53816850       0.81028870       0.56817890
    77  C          0.52292150       0.21177150       0.49698120
    78  C          0.47707850       0.78822850       0.50301880
    79  C          0.52272000       0.31850180       0.50506170
    80  C          0.47728000       0.68149820       0.49493830
    81  H          0.48060000       0.37940000       0.47050000
    82  H          0.51940000       0.62060000       0.52950000
    83  C          0.58443000       0.33662000       0.56392000
    84  C          0.41557000       0.66338000       0.43608000
    85  H          0.58390000       0.41000000       0.56920000
    86  H          0.41610000       0.59000000       0.43080000
    87  C          0.64592000       0.24942000       0.61440160
    88  C          0.35408000       0.75058000       0.38559840
    89  H          0.68800000       0.26250000       0.65420000
    90  H          0.31200000       0.73750000       0.34580000
    91  C          0.64632170       0.14259180       0.60698130
    92  C          0.35367830       0.85740820       0.39301870
    93  H          0.68820000       0.08210000       0.64200000
    94  H          0.31180000       0.91790000       0.35800000
    95  C          0.58555160       0.12374160       0.54835120
    96  C          0.41444840       0.87625840       0.45164880
    97  H          0.58660000       0.05010000       0.54320000
    98  H          0.41340000       0.94990000       0.45680000
    99  N          0.88604120       0.11101110       0.11538900
   100  N          0.11395880       0.88898890       0.88461100
   101  H          0.81720000       0.14770000       0.09980000
   102  H          0.18280000       0.85230000       0.90020000
   103  N          0.70040120       0.03360110       0.21975900
   104  N          0.29959880       0.96639890       0.78024100
   105  H          0.70320000       0.09680000       0.23410000
   106  H          0.29680000       0.90320000       0.76590000
   107  N          0.53774120       0.11982120       0.37006900
   108  N          0.46225880       0.88017880       0.62993100
   109  H          0.61350000       0.09420000       0.37340000
   110  H          0.38650000       0.90580000       0.62660000
   111  O          0.21778120       0.31063110       0.31151900
   112  O          0.78221880       0.68936890       0.68848100
   113  O          0.19168120       0.14805120       0.40085100
   114  O          0.80831880       0.85194880       0.59914900
   115  O          0.72543130       0.71321890       0.23543110
   116  O          0.27456870       0.28678110       0.76456890
   117  O          0.66027140       0.78652870       0.09780100
   118  O          0.33972860       0.21347130       0.90219900
   119  O          0.20369130       0.94444870       0.20718100
   120  O          0.79630870       0.05555130       0.79281900
   121  O          0.20097130       0.91769870       0.05707110
   122  O          0.79902870       0.08230130       0.94292890
   123  N          0.78331130       0.06629130       0.37554100
   124  N          0.21668870       0.93370870       0.62445900
   125  C          0.84112170       0.96361840       0.40458130
   126  C          0.15887830       0.03638160       0.59541870
   127  H          0.79850000       0.91200000       0.42140000
   128  H          0.20150000       0.08800000       0.57860000
   129  C          0.95955190       0.92821820       0.41157140
   130  C          0.04044810       0.07178180       0.58842860
   131  H         -0.00250000       0.85420000       0.43230000
   132  H          0.00250000       0.14580000       0.56770000
   133  C          0.02092180       0.00374190       0.38749140
   134  C          0.97907820      -0.00374190       0.61250860
   135  H          0.10240000       0.98240000       0.39140000
   136  H          0.89760000       0.01760000       0.60860000
   137  C          0.96251160       0.11116170       0.35746130
   138  C          0.03748840       0.88883830       0.64253870
   139  H          0.00340000       0.16420000       0.34080000
   140  H         -0.00340000       0.83580000       0.65920000
   141  C          0.84367150       0.14011150       0.35209110
   142  C          0.15632850       0.85988850       0.64790890
   143  C          0.77438150       0.25100140       0.31631110
   144  C          0.22561850       0.74899860       0.68368890
   145  C          0.77700180       0.35395160       0.33635120
   146  C          0.22299820       0.64604840       0.66364880
   147  C          0.85332000       0.36432000       0.39737160
   148  C          0.14668000       0.63568000       0.60262840
   149  H          0.82170000       0.43900000       0.41910000
   150  H          0.17830000       0.56100000       0.58090000
   151  H          0.93460000       0.35200000       0.36610000
   152  H          0.06540000       0.64800000       0.63390000
   153  H          0.85310000       0.30850000       0.44630000
   154  H          0.14690000       0.69150000       0.55370000
   155  C          0.70421180       0.44915160       0.29838130
   156  C          0.29578820       0.55084840       0.70161870
   157  H          0.70410000       0.51990000       0.31100000
   158  H          0.29590000       0.48010000       0.68900000
   159  C          0.63139160       0.44478140       0.24239130
   160  C          0.36860840       0.55521860       0.75760870
   161  C          0.55725190       0.54996160       0.19956160
   162  C          0.44274810       0.45003840       0.80043840
   163  H          0.55360000       0.53590000       0.14070000
   164  H          0.44640000       0.46410000       0.85930000
   165  H          0.59290000       0.60890000       0.19640000
   166  H          0.40710000       0.39110000       0.80360000
   167  H          0.47700000       0.57340000       0.23370000
   168  H          0.52300000       0.42660000       0.76630000
   169  C          0.63568140       0.33807140       0.22598110
   170  C          0.36431860       0.66192860       0.77401890
   171  C          0.56520150       0.31722130       0.16688110
   172  C          0.43479850       0.68277870       0.83311890
   173  C          0.44284160       0.36440140       0.17842120
   174  C          0.55715840       0.63559860       0.82157880
   175  H          0.40180000       0.41520000       0.22220000
   176  H          0.59820000       0.58480000       0.77780000
   177  C          0.38175160       0.33583150       0.12482130
   178  C          0.61824840       0.66416850       0.87517870
   179  H          0.29790000       0.36550000       0.13230000
   180  H          0.70210000       0.63450000       0.86770000
   181  C          0.44417170       0.26411180       0.06083130
   182  C          0.55582830       0.73588820       0.93916870
   183  H          0.40450000       0.24500000       0.02230000
   184  H          0.59550000       0.75500000       0.97770000
   185  C          0.56651170       0.22014170       0.05364130
   186  C          0.43348830       0.77985830       0.94635870
   187  H          0.60920000       0.17030000       0.00950000
   188  H          0.39080000       0.82970000       0.99050000
   189  N          0.70458120       0.24481110       0.26238900
   190  N          0.29541880       0.75518890       0.73761100
   191  N          0.62753130       0.24448130       0.10602100
   192  N          0.37246870       0.75551870       0.89397900
   193  C          0.10782000       0.57247180       0.30088160
   194  C          0.89218000       0.42752820       0.69911840
   195  H          0.14120000       0.49100000       0.29180000
   196  H          0.85880000       0.50900000       0.70820000
   197  Cl         0.96501400       0.62352500       0.27506400
   198  Cl         0.03498600       0.37647500       0.72493600
   199  Cl         0.20119600       0.64156500       0.23318500
   200  Cl         0.79880400       0.35843500       0.76681500
   201  Cl         0.10131900       0.59213600       0.41046500
   202  Cl         0.89868100       0.40786400       0.58953500
