data_KADHIK
_symmetry_space_group_name_H-M    'P1'
_symmetry_Int_Tables_number       1
loop_
_symmetry_equiv_pos_site_id
_symmetry_equiv_pos_as_xyz
1 x,y,z
_cell_length_a                   8.841219
_cell_length_b                   9.0122
_cell_length_c                   12.2273
_cell_angle_alpha                70.3843
_cell_angle_beta                 71.0533
_cell_angle_gamma                77.8074
loop_
_atom_site_label
_atom_site_type_symbol
_atom_site_fract_x
_atom_site_fract_y
_atom_site_fract_z
     1  Br         0.58513700       0.27146600       0.58763400
     2  Br         0.41486300       0.72853400       0.41236600
     3  Br         0.41866700       0.10398600       0.23856400
     4  Br         0.58133300       0.89601400       0.76143600
     5  O          0.40565000       0.42675000       0.35324000
     6  O          0.59435000       0.57325000       0.64676000
     7  O          0.66295000       0.34614000       0.27593000
     8  O          0.33705000       0.65386000       0.72407000
     9  H          0.66670000       0.43920000       0.23550000
    10  H          0.33330000       0.56080000       0.76450000
    11  C          0.50866000       0.15576000       0.42544000
    12  C          0.49134000       0.84424000       0.57456000
    13  C          0.53926000       0.11346000       0.53774000
    14  C          0.46074000       0.88654000       0.46226000
    15  C          0.46876000       0.04306000       0.38844000
    16  C          0.53124000       0.95694000       0.61156000
    17  C          0.51877000       0.32706000       0.34584000
    18  C          0.48123000       0.67294000       0.65416000
    19  Br         0.32602700       0.79236700       0.11632600
    20  Br         0.67397300       0.20763300       0.88367400
    21  Br         0.10631600       0.55985800       0.08081600
    22  Br         0.89368400       0.44014200       0.91918400
    23  O          0.71864000       0.62944000       0.14963000
    24  O          0.28136000       0.37056000       0.85037000
    25  H          0.73460000       0.69940000       0.17210000
    26  H          0.26540000       0.30060000       0.82790000
    27  O          0.73725000       0.81224000       0.97097000
    28  O          0.26275000       0.18776000       0.02903000
    29  C          0.59176000       0.59306000       0.02024000
    30  C          0.40824000       0.40694000       0.97976000
    31  C          0.42426000       0.62005000       0.05274000
    32  C          0.57574000       0.37995000       0.94726000
    33  C          0.33446000       0.52776000       0.03394000
    34  C          0.66554000       0.47224000       0.96606000
    35  C          0.69186000       0.69096000       0.04434000
    36  C          0.30814000       0.30904000       0.95566000
    37  Br         0.95756100       0.72948140       0.53736800
    38  Br         0.04243900       0.27051860       0.46263200
    39  N          0.82405000       0.80686000       0.23194000
    40  N          0.17595000       0.19314000       0.76806000
    41  C          0.85237000       0.74168000       0.34006000
    42  C          0.14763000       0.25832000       0.65994000
    43  H          0.82540000       0.64020000       0.38540000
    44  H          0.17460000       0.35980000       0.61460000
    45  C          0.92097000       0.82419000       0.38406000
    46  C          0.07903000       0.17581000       0.61594000
    47  C          0.96018000       0.97141000       0.31757000
    48  C          0.03982000       0.02859000       0.68243000
    49  H          0.00730000       0.02790000       0.34640000
    50  H         -0.00730000       0.97210000       0.65360000
    51  C          0.92919000       0.03769000       0.20547000
    52  C          0.07081000       0.96231000       0.79453000
    53  H          0.95580000       0.13860000       0.15850000
    54  H          0.04420000       0.86140000       0.84150000
    55  C          0.85827000       0.95158000       0.16456000
    56  C          0.14173000       0.04842000       0.83544000
    57  H          0.83480000      -0.00520000       0.09050000
    58  H          0.16520000       0.00520000       0.90950000
