data_KADHOQ
_symmetry_space_group_name_H-M    'P1'
_symmetry_Int_Tables_number       1
loop_
_symmetry_equiv_pos_site_id
_symmetry_equiv_pos_as_xyz
1 x,y,z
_cell_length_a                   9.02921
_cell_length_b                   9.416311
_cell_length_c                   12.276414
_cell_angle_alpha                108.6712
_cell_angle_beta                 108.5022
_cell_angle_gamma                93.0512
loop_
_atom_site_label
_atom_site_type_symbol
_atom_site_fract_x
_atom_site_fract_y
_atom_site_fract_z
     1  Br         0.88569400       0.60765500       0.62422400
     2  Br         0.11430600       0.39234500       0.37577600
     3  Br         0.64194500       0.86253400       0.64723400
     4  Br         0.35805500       0.13746600       0.35276600
     5  O          0.73914000       0.21454000       0.56493000
     6  O          0.26086000       0.78546000       0.43507000
     7  O          0.76673000       0.24343000       0.40142000
     8  O          0.23327000       0.75657000       0.59858000
     9  H          0.73900000       0.29890000       0.36160000
    10  H          0.26100000       0.70110000       0.63840000
    11  C          0.71124000       0.27484000       0.48853000
    12  C          0.28876000       0.72516000       0.51147000
    13  C          0.60164000       0.39264000       0.49363000
    14  C          0.39836000       0.60736000       0.50637000
    15  C          0.66294000       0.54684000       0.55343000
    16  C          0.33706000       0.45316000       0.44657000
    17  C          0.56194000       0.65324000       0.56093000
    18  C          0.43806000       0.34676000       0.43907000
    19  Br         0.86917400       0.44669500       0.07521300
    20  Br         0.13082600       0.55330500       0.92478700
    21  Br         0.72590400       0.61937400       0.87302700
    22  Br         0.27409600       0.38062600       0.12697300
    23  O          0.68753000       0.39993000       0.27312000
    24  O          0.31247000       0.60007000       0.72688000
    25  O          0.58933000       0.18773000       0.10542000
    26  O          0.41067000       0.81227000       0.89458000
    27  C          0.61644000       0.32614000       0.15953000
    28  C          0.38356000       0.67386000       0.84047000
    29  C          0.55774000       0.42274000       0.08073000
    30  C          0.44226000       0.57726000       0.91927000
    31  C          0.65624000       0.47554000       0.02953000
    32  C          0.34376000       0.52446000       0.97047000
    33  C          0.59834000       0.55174000       0.94827000
    34  C          0.40166000       0.44826000       0.05173000
    35  O          0.03903000       0.90503000       0.11722000
    36  O          0.96097000       0.09497000       0.88278000
    37  N          0.61564000       0.84234000       0.24903000
    38  N          0.38436000       0.15766000       0.75097000
    39  N          0.84635000       0.03884000       0.06814000
    40  N          0.15365000       0.96116000       0.93186000
    41  C          0.70236000       0.80166000       0.34074000
    42  C          0.29764000       0.19834000       0.65926000
    43  H          0.65410000       0.76620000       0.38590000
    44  H          0.34590000       0.23380000       0.61410000
    45  C          0.86356000       0.81237000       0.36835000
    46  C          0.13644000       0.18763000       0.63165000
    47  H          0.92540000       0.78500000       0.43250000
    48  H          0.07460000       0.21500000       0.56750000
    49  C          0.93155000       0.86405000       0.29944000
    50  C          0.06845000       0.13595000       0.70056000
    51  H          0.04030000       0.87120000       0.31710000
    52  H          0.95970000       0.12880000       0.68290000
    53  C          0.84064000       0.90514000       0.20453000
    54  C          0.15936000       0.09486000       0.79547000
    55  C          0.67874000       0.89344000       0.18093000
    56  C          0.32126000       0.10656000       0.81907000
    57  H          0.61430000       0.92110000       0.11780000
    58  H          0.38570000       0.07890000       0.88220000
    59  C          0.91714000       0.95134000       0.12623000
    60  C          0.08286000       0.04866000       0.87377000
    61  H          0.51560000       0.83150000       0.23640000
    62  H          0.48440000       0.16850000       0.76360000
    63  H          0.76860000       0.07450000       0.08040000
    64  H          0.23140000       0.92550000       0.91960000
    65  H          0.88360000       0.05550000       0.02040000
    66  H          0.11640000       0.94450000       0.97960000
    67  O          0.31183000       0.78733000       0.22732000
    68  O          0.68817000       0.21267000       0.77268000
    69  H          0.29910000       0.78380000       0.29430000
    70  H          0.70090000       0.21620000       0.70570000
    71  H          0.22480000       0.82930000       0.19490000
    72  H          0.77520000       0.17070000       0.80510000
