data_KADVET
_symmetry_space_group_name_H-M    'P1'
_symmetry_Int_Tables_number       1
loop_
_symmetry_equiv_pos_site_id
_symmetry_equiv_pos_as_xyz
1 x,y,z
_cell_length_a                   13.04543
_cell_length_b                   5.641001
_cell_length_c                   15.43223
_cell_angle_alpha                90.0
_cell_angle_beta                 94.03501
_cell_angle_gamma                90.0
loop_
_atom_site_label
_atom_site_type_symbol
_atom_site_fract_x
_atom_site_fract_y
_atom_site_fract_z
     1  O          0.98275100       0.88078000       0.54676700
     2  O          0.01724900       0.38078000       0.45323300
     3  O          0.72493900       0.42842000       0.53336800
     4  O          0.27506100       0.92842000       0.46663200
     5  O          0.76696900       0.37253000       0.33747800
     6  O          0.23303100       0.87253000       0.66252200
     7  O          0.65194110       0.93638000       0.59071700
     8  O          0.34805890       0.43638000       0.40928300
     9  O          0.52758100      -0.00402000       0.48806800
    10  O          0.47241900       0.49598000       0.51193200
    11  N          0.66345110       0.04453000       0.36529900
    12  N          0.33654890       0.54453000       0.63470100
    13  N          0.84266110       0.12943000       0.52286900
    14  N          0.15733890       0.62943000       0.47713100
    15  C          0.46966160       0.83056000       0.07871120
    16  C          0.53033840       0.33056000       0.92128880
    17  C          0.42159160       0.02654000       0.11098130
    18  C          0.57840840       0.52654000       0.88901870
    19  C          0.45142140       0.11344000       0.19326130
    20  C          0.54857860       0.61344000       0.80673870
    21  C          0.52943120       0.00133000       0.24364110
    22  C          0.47056880       0.50133000       0.75635890
    23  C          0.55714130       0.08783000       0.33514110
    24  C          0.44285870       0.58783000       0.66485890
    25  C          0.74699130       0.19044000       0.37341110
    26  C          0.25300870       0.69044000       0.62658890
    27  C          0.80010140       0.02534000       0.44400100
    28  C          0.19989860       0.52534000       0.55599900
    29  C          0.93410130       0.05083000       0.56680100
    30  C          0.06589870       0.55083000       0.43319900
    31  C          0.95375130       0.22003000       0.63980100
    32  C          0.04624870       0.72003000       0.36019900
    33  C          0.03593140       0.23074000       0.70137110
    34  C          0.96406860       0.73074000       0.29862890
    35  C          0.03764150       0.42094000       0.75940110
    36  C          0.96235850       0.92094000       0.24059890
    37  C          0.69417140       0.89607000       0.44140100
    38  C          0.30582860       0.39607000       0.55859900
    39  C          0.87583130       0.38833000       0.63616100
    40  C          0.12416870       0.88833000       0.36383900
    41  C          0.87639150       0.57484000       0.69385120
    42  C          0.12360850       0.07484000       0.30614880
    43  C          0.95985160       0.58954000       0.75533120
    44  C          0.04014840       0.08954000       0.24466880
    45  C          0.80321130       0.32973000       0.56042110
    46  C          0.19678870       0.82973000       0.43957890
    47  C          0.62537150       0.94207000       0.51467110
    48  C          0.37462850       0.44207000       0.48532890
    49  C          0.49447150       0.94956000       0.39753110
    50  C          0.50552850       0.44956000       0.60246890
    51  C          0.57669140       0.80317000       0.21137110
    52  C          0.42330860       0.30317000       0.78862890
    53  C          0.54717150       0.71916000       0.12874120
    54  C          0.45282850       0.21916000       0.87125880
    55  H          0.85481900       0.93050000       0.42011400
    56  H          0.14518100       0.43050000       0.57988600
    57  H          0.69661500       0.72050000       0.42841300
    58  H          0.30338500       0.22050000       0.57158700
    59  H          0.54141700       0.24950000       0.33951400
    60  H          0.45858300       0.74950000       0.66048600
    61  H          0.09611700       0.43540000       0.80371400
    62  H          0.90388300       0.93540000       0.19628600
    63  H          0.09020000       0.11150000       0.70321600
    64  H          0.90980000       0.61150000       0.29678400
    65  H          0.82101700       0.69950000       0.69021400
    66  H          0.17898300       0.19950000       0.30978600
    67  H          0.96301800       0.72850000       0.79471600
    68  H          0.03698200       0.22850000       0.20528400
    69  H          0.63001600       0.72050000       0.24721400
    70  H          0.36998400       0.22050000       0.75278600
    71  H          0.58061900       0.58050000       0.10551500
    72  H          0.41938100       0.08050000       0.89448500
    73  H          0.44781900       0.76650000       0.02081700
    74  H          0.55218100       0.26650000       0.97918300
    75  H          0.36620000       0.11460000       0.07511700
    76  H          0.63380000       0.61460000       0.92488300
    77  H          0.42071900       0.25650000       0.21621500
    78  H          0.57928100       0.75650000       0.78378500
    79  H          0.50201700       0.78050000       0.38621400
    80  H          0.49798300       0.28050000       0.61378600
    81  H          0.42320000       0.00850000       0.38971400
    82  H          0.57680000       0.50850000       0.61028600
    83  C          0.81165160       0.42275000       0.11665120
    84  C          0.18834840       0.92275000       0.88334880
    85  C          0.87243170       0.50035000       0.05245140
    86  C          0.12756830       0.00035000       0.94754860
    87  C          0.87215170       0.37804000       0.97461140
    88  C          0.12784830       0.87804000       0.02538860
    89  C          0.81280170       0.17684000       0.95982140
    90  C          0.18719830       0.67684000       0.04017860
    91  C          0.75424160       0.09754000       0.02607140
    92  C          0.24575840       0.59754000       0.97392860
    93  C          0.75349160       0.22025000       0.10328130
    94  C          0.24650840       0.72025000       0.89671870
    95  C          0.80743000       0.05176000       0.87342000
    96  C          0.19257000       0.55176000       0.12658000
    97  H          0.74150000       0.08690000       0.84150000
    98  H          0.25850000       0.58690000       0.15850000
    99  H          0.81360000       0.88030000       0.88270000
   100  H          0.18640000       0.38030000       0.11730000
   101  H          0.86370000       0.10660000       0.83960000
   102  H          0.13630000       0.60660000       0.16040000
   103  H          0.91520000       0.43760000       0.92581900
   104  H          0.08480000       0.93760000       0.07418100
   105  H          0.81051800       0.51350000       0.17201700
   106  H          0.18948200       0.01350000       0.82798300
   107  H          0.71020000       0.94940000       0.01741700
   108  H          0.28980000       0.44940000       0.98258300
   109  H          0.71120000       0.16960000       0.14821900
   110  H          0.28880000       0.66960000       0.85178100
   111  H          0.91620000       0.64360000       0.05841800
   112  H          0.08380000       0.14360000       0.94158200
