data_KAHRIX
_symmetry_space_group_name_H-M    'P1'
_symmetry_Int_Tables_number       1
loop_
_symmetry_equiv_pos_site_id
_symmetry_equiv_pos_as_xyz
1 x,y,z
_cell_length_a                   6.90618
_cell_length_b                   9.454411
_cell_length_c                   22.4843
_cell_angle_alpha                96.0562
_cell_angle_beta                 95.3552
_cell_angle_gamma                100.6962
loop_
_atom_site_label
_atom_site_type_symbol
_atom_site_fract_x
_atom_site_fract_y
_atom_site_fract_z
     1  C          0.66304000       0.70053000       0.99305120
     2  C          0.33696000       0.29947000       0.00694880
     3  C          0.80824000       0.81174000       0.97045150
     4  C          0.19176000       0.18826000       0.02954850
     5  H          0.85130000       0.76850000       0.93420000
     6  H          0.14870000       0.23150000       0.06580000
     7  H          0.92350000       0.84140000       0.00030000
     8  H          0.07650000       0.15860000      -0.00030000
     9  C          0.73024000       0.94343000       0.95670140
    10  C          0.26976000       0.05657000       0.04329860
    11  H          0.82100000       0.00050000       0.93390000
    12  H          0.17900000      -0.00050000       0.06610000
    13  H          0.72290000       0.00250000      -0.00590000
    14  H          0.27710000      -0.00250000       0.00590000
    15  C          0.52854000       0.90343000       0.92134120
    16  C          0.47146000       0.09657000       0.07865880
    17  C          0.40643000       0.77252000       0.92817110
    18  C          0.59357000       0.22748000       0.07182890
    19  C          0.22103000       0.73032000       0.89694110
    20  C          0.77897000       0.26968000       0.10305890
    21  H          0.14280000       0.64170000       0.90150000
    22  H          0.85720000       0.35830000       0.09850000
    23  C          0.14964000       0.81912000       0.85870110
    24  C          0.85036000       0.18088000       0.14129890
    25  C          0.26694000       0.95013000       0.85186130
    26  C          0.73306000       0.04987000       0.14813870
    27  H          0.22020000       0.01130000       0.82670000
    28  H          0.77980000      -0.01130000       0.17330000
    29  C          0.45404000      -0.01147000       0.88293140
    30  C          0.54596000       0.01147000       0.11706860
    31  H          0.53340000       0.07610000       0.87760000
    32  H          0.46660000       0.92390000       0.12240000
    33  C          0.86874000       0.86193000       0.79681120
    34  C          0.13126000       0.13807000       0.20318880
    35  H          0.94580000       0.89060000       0.76460000
    36  H          0.05420000       0.10940000       0.23540000
    37  H          0.85980000       0.94860000       0.82270000
    38  H          0.14020000       0.05140000       0.17730000
    39  C          0.66534000       0.78143000       0.77117120
    40  C          0.33466000       0.21857000       0.22882880
    41  H          0.59330000       0.84830000       0.75340000
    42  H          0.40670000       0.15170000       0.24660000
    43  H          0.59500000       0.74560000       0.80360000
    44  H          0.40500000       0.25440000       0.19640000
    45  C          0.66584000       0.65563000       0.72419110
    46  C          0.33416000       0.34437000       0.27580890
    47  H          0.73000000       0.58500000       0.74240000
    48  H          0.27000000       0.41500000       0.25760000
    49  H          0.74200000       0.68980000       0.69260000
    50  H          0.25800000       0.31020000       0.30740000
    51  C          0.45784000       0.58293000       0.69687110
    52  C          0.54216000       0.41707000       0.30312890
    53  H          0.38020000       0.55570000       0.72910000
    54  H          0.61980000       0.44430000       0.27090000
    55  H          0.39770000       0.65290000       0.67700000
    56  H          0.60230000       0.34710000       0.32300000
    57  C          0.23724000       0.39273000       0.63149110
    58  C          0.76276000       0.60727000       0.36850890
    59  H          0.17650000       0.46740000       0.61540000
    60  H          0.82350000       0.53260000       0.38460000
    61  H          0.16790000       0.36220000       0.66500000
    62  H          0.83210000       0.63780000       0.33500000
    63  C          0.21454000       0.26563000       0.58357110
    64  C          0.78546000       0.73437000       0.41642890
    65  H          0.26750000       0.18800000       0.60000000
    66  H          0.73250000       0.81200000       0.40000000
    67  H          0.07490000       0.22960000       0.56970000
    68  H          0.92510000       0.77040000       0.43030000
    69  C          0.55274000       0.49003000       0.60211110
    70  C          0.44726000       0.50997000       0.39788890
    71  H          0.69240000       0.52460000       0.61610000
    72  H          0.30760000       0.47540000       0.38390000
    73  H          0.50310000       0.56790000       0.58480000
    74  H          0.49690000       0.43210000       0.41520000
    75  C          0.53003000       0.36193000       0.55424110
    76  C          0.46997000       0.63807000       0.44575890
    77  H          0.60220000       0.39030000       0.52100000
    78  H          0.39780000       0.60970000       0.47900000
    79  H          0.58460000       0.28500000       0.57070000
    80  H          0.41540000       0.71500000       0.42930000
    81  C          0.27593000       0.21072000       0.47987100
    82  C          0.72407000       0.78928000       0.52012900
    83  C          0.09703000       0.20042000       0.44335110
    84  C          0.90297000       0.79958000       0.55664890
    85  C          0.05013000       0.10663000       0.39029110
    86  C          0.94987000       0.89337000       0.60970890
    87  C          0.18034000       0.02223000       0.37152120
    88  C          0.81966000       0.97777000       0.62847880
    89  H          0.14830000       0.95840000       0.33600000
    90  H          0.85170000       0.04160000       0.66400000
    91  C          0.35724000       0.03383000       0.40594130
    92  C          0.64276000       0.96617000       0.59405870
    93  H          0.44740000       0.97850000       0.39320000
    94  H          0.55260000       0.02150000       0.60680000
    95  C          0.40494000       0.12523000       0.45883120
    96  C          0.59506000       0.87477000       0.54116880
    97  H          0.52670000       0.13040000       0.48130000
    98  H          0.47330000       0.86960000       0.51870000
    99  Cl         0.93877900       0.31458800       0.46317300
   100  Cl         0.06122100       0.68541200       0.53682700
   101  Cl         0.83059900       0.09638900       0.34473300
   102  Cl         0.16940100       0.90361100       0.65526700
   103  H          0.40040000       0.61730000       0.97791300
   104  H          0.59960000       0.38270000       0.02208700
   105  N          0.47613000       0.68542000       0.96909110
   106  N          0.52387000       0.31458000       0.03090890
   107  N          0.44593000       0.45332000       0.65331800
   108  N          0.55407000       0.54668000       0.34668200
   109  N          0.32073000       0.30992000       0.53273800
   110  N          0.67927000       0.69008000       0.46726200
   111  O          0.71522000       0.62022000       0.02891900
   112  O          0.28478000       0.37978000       0.97108100
   113  O          0.96153000       0.76787170       0.83047800
   114  O          0.03847000       0.23212830       0.16952200
   115  C          0.71345000       0.28983000       0.76203120
   116  C          0.28655000       0.71017000       0.23796880
   117  C          0.59034000       0.33603000       0.80106120
   118  C          0.40966000       0.66397000       0.19893880
   119  H          0.46350000       0.34520000       0.78620000
   120  H          0.53650000       0.65480000       0.21380000
   121  C          0.65124000       0.36923000       0.86205110
   122  C          0.34876000       0.63077000       0.13794890
   123  H          0.56640000       0.40180000       0.88780000
   124  H          0.43360000       0.59820000       0.11220000
   125  C          0.83684000       0.35402000       0.88462110
   126  C          0.16316000       0.64598000       0.11537890
   127  C          0.95874000       0.30433000       0.84575120
   128  C          0.04126000       0.69567000       0.15424880
   129  H          0.08380000       0.29180000       0.86070000
   130  H          0.91620000       0.70820000       0.13930000
   131  C          0.89795000       0.27313000       0.78525120
   132  C          0.10205000       0.72687000       0.21474880
   133  H         -0.01750000       0.24010000       0.75960000
   134  H          0.01750000       0.75990000       0.24040000
   135  H          0.58250000       0.31140000       0.69071500
   136  H          0.41750000       0.68860000       0.30928500
   137  H          0.00540000       0.38230000       0.95081300
   138  H         -0.00540000       0.61770000       0.04918700
   139  O          0.65924000       0.25833000       0.70113900
   140  O          0.34076000       0.74167000       0.29886100
   141  O          0.88983000       0.38862000       0.94510900
   142  O          0.11017000       0.61138000       0.05489100
