data_KANBOT
_symmetry_space_group_name_H-M    'P1'
_symmetry_Int_Tables_number       1
loop_
_symmetry_equiv_pos_site_id
_symmetry_equiv_pos_as_xyz
1 x,y,z
_cell_length_a                   7.47527
_cell_length_b                   31.5263
_cell_length_c                   10.61009
_cell_angle_alpha                90.0
_cell_angle_beta                 95.7993
_cell_angle_gamma                90.0
loop_
_atom_site_label
_atom_site_type_symbol
_atom_site_fract_x
_atom_site_fract_y
_atom_site_fract_z
     1  O          0.30792000       0.43688500       0.76380160
     2  O          0.69208000       0.93688500       0.73619840
     3  O          0.69208000       0.56311500       0.23619840
     4  O          0.30792000       0.06311500       0.26380160
     5  C          0.24303000       0.40895600       0.69630180
     6  C          0.75697000       0.90895600       0.80369820
     7  C          0.75697000       0.59104400       0.30369820
     8  C          0.24303000       0.09104400       0.19630180
     9  O          0.07378190       0.39822500       0.68682150
    10  O          0.92621810       0.89822500       0.81317850
    11  O          0.92621810       0.60177500       0.31317850
    12  O          0.07378190       0.10177500       0.18682150
    13  H          0.01850000       0.41460000       0.72880000
    14  H         -0.01850000       0.91460000       0.77120000
    15  H         -0.01850000       0.58540000       0.27120000
    16  H          0.01850000       0.08540000       0.22880000
    17  C          0.35512000       0.38344500       0.61431160
    18  C          0.64488000       0.88344500       0.88568840
    19  C          0.64488000       0.61655500       0.38568840
    20  C          0.35512000       0.11655500       0.11431160
    21  C          0.53972000       0.38748600       0.63181170
    22  C          0.46028000       0.88748600       0.86818830
    23  C          0.46028000       0.61251400       0.36818830
    24  C          0.53972000       0.11251400       0.13181170
    25  H          0.59170000       0.40560000       0.69430000
    26  H          0.40830000       0.90560000       0.80570000
    27  H          0.40830000       0.59440000       0.30570000
    28  H          0.59170000       0.09440000       0.19430000
    29  C          0.64842000       0.36500600       0.55788170
    30  C          0.35158000       0.86500600       0.94211830
    31  C          0.35158000       0.63499400       0.44211830
    32  C          0.64842000       0.13499400       0.05788170
    33  H          0.77280000       0.36770000       0.57060000
    34  H          0.22720000       0.86770000       0.92940000
    35  H          0.22720000       0.63230000       0.42940000
    36  H          0.77280000       0.13230000       0.07060000
    37  C          0.56942000       0.33826500       0.46446150
    38  C          0.43058000       0.83826500       0.03553850
    39  C          0.43058000       0.66173500       0.53553850
    40  C          0.56942000       0.16173500       0.96446150
    41  C          0.38362000       0.33419600       0.44518170
    42  C          0.61638000       0.83419600       0.05481830
    43  C          0.61638000       0.66580400       0.55481830
    44  C          0.38362000       0.16580400       0.94518170
    45  H          0.33140000       0.31640000       0.38180000
    46  H          0.66860000       0.81640000       0.11820000
    47  H          0.66860000       0.68360000       0.61820000
    48  H          0.33140000       0.18360000       0.88180000
    49  C          0.27672000       0.35669600       0.52062170
    50  C          0.72328000       0.85669600       0.97937830
    51  C          0.72328000       0.64330400       0.47937830
    52  C          0.27672000       0.14330400       0.02062170
    53  H          0.15230000       0.35390000       0.50860000
    54  H          0.84770000       0.85390000      -0.00860000
    55  H          0.84770000       0.64610000       0.49140000
    56  H          0.15230000       0.14610000       0.00860000
    57  S          0.70525600       0.30710200       0.37324400
    58  S          0.29474400       0.80710200       0.12675600
    59  S          0.29474400       0.69289800       0.62675600
    60  S          0.70525600       0.19289800       0.87324400
    61  O          0.87658170       0.32733400       0.37504130
    62  O          0.12341830       0.82733400       0.12495870
    63  O          0.12341830       0.67266600       0.62495870
    64  O          0.87658170       0.17266600       0.87504130
    65  O          0.60189180       0.29866400       0.25530110
    66  O          0.39810820       0.79866400       0.24469890
    67  O          0.39810820       0.70133600       0.74469890
    68  O          0.60189180       0.20133600       0.75530110
    69  N          0.73826190       0.26230400       0.44684130
    70  N          0.26173810       0.76230400       0.05315870
    71  N          0.26173810       0.73769600       0.55315870
    72  N          0.73826190       0.23769600       0.94684130
    73  C          0.86043000       0.26321700       0.56618180
    74  C          0.13957000       0.76321700       0.93381820
    75  C          0.13957000       0.73678300       0.43381820
    76  C          0.86043000       0.23678300       0.06618180
    77  H          0.80400000       0.24810000       0.63130000
    78  H          0.19600000       0.74810000       0.86870000
    79  H          0.19600000       0.75190000       0.36870000
    80  H          0.80400000       0.25190000       0.13130000
    81  H          0.87730000       0.29240000       0.59360000
    82  H          0.12270000       0.79240000       0.90640000
    83  H          0.12270000       0.70760000       0.40640000
    84  H          0.87730000       0.20760000       0.09360000
    85  C          0.04083000       0.24379900       0.55352000
    86  C          0.95917000       0.74379900       0.94648000
    87  C          0.95917000       0.75620100       0.44648000
    88  C          0.04083000       0.25620100       0.05352000
    89  H          0.09900000       0.25890000       0.48920000
    90  H          0.90100000       0.75890000       0.01080000
    91  H          0.90100000       0.74110000       0.51080000
    92  H          0.09900000       0.24110000      -0.01080000
    93  H          0.02540000       0.21450000       0.52670000
    94  H          0.97460000       0.71450000       0.97330000
    95  H          0.97460000       0.78550000       0.47330000
    96  H          0.02540000       0.28550000       0.02670000
    97  C          0.15863000       0.24563110       0.67842000
    98  C          0.84137000       0.74563110       0.82158000
    99  C          0.84137000       0.75436890       0.32158000
   100  C          0.15863000       0.25436890       0.17842000
   101  H          0.17750000       0.27470000       0.70330000
   102  H          0.82250000       0.77470000       0.79670000
   103  H          0.82250000       0.72530000       0.29670000
   104  H          0.17750000       0.22530000       0.20330000
   105  H          0.27230000       0.23250000       0.66880000
   106  H          0.72770000       0.73250000       0.83120000
   107  H          0.72770000       0.76750000       0.33120000
   108  H          0.27230000       0.26750000       0.16880000
   109  H          0.10050000       0.23090000       0.74210000
   110  H          0.89950000       0.73090000       0.75790000
   111  H          0.89950000       0.76910000       0.25790000
   112  H          0.10050000       0.26910000       0.24210000
   113  C          0.58193000       0.23334600       0.44812000
   114  C          0.41807000       0.73334600       0.05188000
   115  C          0.41807000       0.76665400       0.55188000
   116  C          0.58193000       0.26665400       0.94812000
   117  H          0.49320000       0.24070000       0.37850000
   118  H          0.50680000       0.74070000       0.12150000
   119  H          0.50680000       0.75930000       0.62150000
   120  H          0.49320000       0.25930000       0.87850000
   121  H          0.52730000       0.23750000       0.52630000
   122  H          0.47270000       0.73750000       0.97370000
   123  H          0.47270000       0.76250000       0.47370000
   124  H          0.52730000       0.26250000       0.02630000
   125  C          0.63084000       0.18769700       0.43703000
   126  C          0.36916000       0.68769700       0.06297000
   127  C          0.36916000       0.81230300       0.56297000
   128  C          0.63084000       0.31230300       0.93703000
   129  H          0.72560000       0.18070000       0.50300000
   130  H          0.27440000       0.68070000      -0.00300000
   131  H          0.27440000       0.81930000       0.49700000
   132  H          0.72560000       0.31930000       0.00300000
   133  H          0.67650000       0.18290000       0.35590000
   134  H          0.32350000       0.68290000       0.14410000
   135  H          0.32350000       0.81710000       0.64410000
   136  H          0.67650000       0.31710000       0.85590000
   137  C          0.47115000       0.15901800       0.44853000
   138  C          0.52885000       0.65901800       0.05147000
   139  C          0.52885000       0.84098200       0.55147000
   140  C          0.47115000       0.34098200       0.94853000
   141  H          0.43020000       0.16240000       0.53080000
   142  H          0.56980000       0.66240000       0.96920000
   143  H          0.56980000       0.83760000       0.46920000
   144  H          0.43020000       0.33760000       0.03080000
   145  H          0.50580000       0.13000000       0.43720000
   146  H          0.49420000       0.63000000       0.06280000
   147  H          0.49420000       0.87000000       0.56280000
   148  H          0.50580000       0.37000000       0.93720000
   149  H          0.37590000       0.16640000       0.38470000
   150  H          0.62410000       0.66640000       0.11530000
   151  H          0.62410000       0.83360000       0.61530000
   152  H          0.37590000       0.33360000       0.88470000
   153  N          0.88832000       0.44465500       0.82908150
   154  N          0.11168000       0.94465500       0.67091850
   155  N          0.11168000       0.55534500       0.17091850
   156  N          0.88832000       0.05534500       0.32908150
   157  C          0.89542000       0.43735600       0.95489180
   158  C          0.10458000       0.93735600       0.54510820
   159  C          0.10458000       0.56264400       0.04510820
   160  C          0.89542000       0.06264400       0.45489180
   161  C         -0.01687000       0.40030600       0.00722000
   162  C          0.01687000       0.90030600       0.49278000
   163  C          0.01687000       0.59969400      -0.00722000
   164  C         -0.01687000       0.09969400       0.50722000
   165  H          0.03590000       0.38140000       0.95460000
   166  H          0.96410000       0.88140000       0.54540000
   167  H          0.96410000       0.61860000       0.04540000
   168  H          0.03590000       0.11860000       0.45460000
   169  C         -0.01007000       0.39240700       0.13252000
   170  C          0.01007000       0.89240700       0.36748000
   171  C          0.01007000       0.60759300       0.86748000
   172  C         -0.01007000       0.10759300       0.63252000
   173  H          0.04600000       0.36790000       0.16510000
   174  H          0.95400000       0.86790000       0.33490000
   175  H          0.95400000       0.63210000       0.83490000
   176  H          0.04600000       0.13210000       0.66510000
   177  C          0.91373000       0.42066800       0.21512000
   178  C          0.08627000       0.92066800       0.28488000
   179  C          0.08627000       0.57933200       0.78488000
   180  C          0.91373000       0.07933200       0.71512000
   181  H          0.92010000       0.41460000       0.30120000
   182  H          0.07990000       0.91460000       0.19880000
   183  H          0.07990000       0.58540000       0.69880000
   184  H          0.92010000       0.08540000       0.80120000
   185  C          0.83183000       0.45627700       0.17012000
   186  C          0.16817000       0.95627700       0.32988000
   187  C          0.16817000       0.54372300       0.82988000
   188  C          0.83183000       0.04372300       0.67012000
   189  H          0.78390000       0.47500000       0.22560000
   190  H          0.21610000       0.97500000       0.27440000
   191  H          0.21610000       0.52500000       0.77440000
   192  H          0.78390000       0.02500000       0.72560000
   193  C          0.81762000       0.46572600       0.03811170
   194  C          0.18238000       0.96572600       0.46188830
   195  C          0.18238000       0.53427400       0.96188830
   196  C          0.81762000       0.03427400       0.53811170
   197  C          0.73082000       0.50150600       0.98542000
   198  C          0.26918000       0.00150600       0.51458000
   199  C          0.26918000       0.49849400       0.01458000
   200  C          0.73082000      -0.00150600       0.48542000
   201  H          0.68010000       0.52080000       0.03780000
   202  H          0.31990000       0.02080000       0.46220000
   203  H          0.31990000       0.47920000       0.96220000
   204  H          0.68010000       0.97920000       0.53780000
   205  C          0.71872000       0.50885600       0.85613190
   206  C          0.28128000       0.00885600       0.64386810
   207  C          0.28128000       0.49114400       0.14386810
   208  C          0.71872000       0.99114400       0.35613190
   209  C          0.62683000       0.54426700       0.79623000
   210  C          0.37317000       0.04426700       0.70377000
   211  C          0.37317000       0.45573300       0.20377000
   212  C          0.62683000       0.95573300       0.29623000
   213  H          0.57260000       0.56410000       0.84500000
   214  H          0.42740000       0.06410000       0.65500000
   215  H          0.42740000       0.43590000       0.15500000
   216  H          0.57260000       0.93590000       0.34500000
   217  C          0.61763000       0.54932800       0.66943000
   218  C          0.38237000       0.04932800       0.83057000
   219  C          0.38237000       0.45067200       0.33057000
   220  C          0.61763000       0.95067200       0.16943000
   221  H          0.55550000       0.57230000       0.63150000
   222  H          0.44450000       0.07230000       0.86850000
   223  H          0.44450000       0.42770000       0.36850000
   224  H          0.55550000       0.92770000       0.13150000
   225  C          0.70104000       0.52017800       0.59442000
   226  C          0.29896000       0.02017800       0.90558000
   227  C          0.29896000       0.47982200       0.40558000
   228  C          0.70104000       0.97982200       0.09442000
   229  H          0.69350000       0.52420000       0.50720000
   230  H          0.30650000       0.02420000      -0.00720000
   231  H          0.30650000       0.47580000       0.49280000
   232  H          0.69350000       0.97580000       0.00720000
   233  C          0.79223000       0.48630700       0.64642000
   234  C          0.20777000       0.98630700       0.85358000
   235  C          0.20777000       0.51369300       0.35358000
   236  C          0.79223000       0.01369300       0.14642000
   237  H          0.84840000       0.46760000       0.59510000
   238  H          0.15160000       0.96760000       0.90490000
   239  H          0.15160000       0.53240000       0.40490000
   240  H          0.84840000       0.03240000       0.09510000
   241  C          0.80222000       0.47924600       0.77908180
   242  C          0.19778000       0.97924600       0.72091820
   243  C          0.19778000       0.52075400       0.22091820
   244  C          0.80222000       0.02075400       0.27908180
