data_KAQKEW
_symmetry_space_group_name_H-M    'P1'
_symmetry_Int_Tables_number       1
loop_
_symmetry_equiv_pos_site_id
_symmetry_equiv_pos_as_xyz
1 x,y,z
_cell_length_a                   12.70393
_cell_length_b                   8.40372
_cell_length_c                   13.93234
_cell_angle_alpha                90.0
_cell_angle_beta                 91.6782
_cell_angle_gamma                90.0
loop_
_atom_site_label
_atom_site_type_symbol
_atom_site_fract_x
_atom_site_fract_y
_atom_site_fract_z
     1  I          0.95721200       0.14860300       0.50119200
     2  I          0.04278800       0.64860300      -0.00119200
     3  I          0.04278800       0.85139700       0.49880800
     4  I          0.95721200       0.35139700       0.00119200
     5  S          0.71141100       0.65024130       0.49687900
     6  S          0.28858900       0.15024130       0.00312100
     7  S          0.28858900       0.34975870       0.50312100
     8  S          0.71141100       0.84975870      -0.00312100
     9  O          0.87633000       0.45714000       0.49592000
    10  O          0.12367000       0.95714000       0.00408000
    11  O          0.12367000       0.54286000       0.50408000
    12  O          0.87633000       0.04286000      -0.00408000
    13  N          0.87363000       0.53685000       0.41383000
    14  N          0.12637000       0.03685000       0.08617000
    15  N          0.12637000       0.46315000       0.58617000
    16  N          0.87363000       0.96315000       0.91383000
    17  C          0.94854000       0.51516000       0.34774000
    18  C          0.05146000       0.01516000       0.15226000
    19  C          0.05146000       0.48484000       0.65226000
    20  C          0.94854000      -0.01516000       0.84774000
    21  H          0.00351600       0.44443000       0.36014700
    22  H         -0.00351600       0.94443000       0.13985300
    23  H         -0.00351600       0.55557000       0.63985300
    24  H          0.00351600       0.05557000       0.86014700
    25  C          0.39994000       0.81366000       0.64354000
    26  C          0.60006000       0.31366000       0.85646000
    27  C          0.60006000       0.18634000       0.35646000
    28  C          0.39994000       0.68634000       0.14354000
    29  C          0.29115000       0.87007000       0.81244000
    30  C          0.70885000       0.37007000       0.68756000
    31  C          0.70885000       0.12993000       0.18756000
    32  C          0.29115000       0.62993000       0.31244000
    33  H          0.25383200       0.88840200       0.86778900
    34  H          0.74616800       0.38840200       0.63221100
    35  H          0.74616800       0.11159800       0.13221100
    36  H          0.25383200       0.61159800       0.36778900
    37  C          0.44974000       0.89906000       0.72154000
    38  C          0.55026000       0.39906000       0.77846000
    39  C          0.55026000       0.10094000       0.27846000
    40  C          0.44974000       0.60094000       0.22154000
    41  C          0.79454000       0.64245000       0.39934000
    42  C          0.20546000       0.14245000       0.10066000
    43  C          0.20546000       0.35755000       0.60066000
    44  C          0.79454000       0.85755000       0.89934000
    45  C          0.45884000       0.78566000       0.55944000
    46  C          0.54116000       0.28566000       0.94056000
    47  C          0.54116000       0.21434000       0.44056000
    48  C          0.45884000       0.71434000       0.05944000
    49  H          0.42827700       0.72736000       0.50910000
    50  H          0.57172300       0.22736000      -0.00910000
    51  H          0.57172300       0.27264000       0.49090000
    52  H          0.42827700       0.77264000       0.00910000
    53  C          0.55934000       0.84256000       0.55114000
    54  C          0.44066000       0.34256000       0.94886000
    55  C          0.44066000       0.15744000       0.44886000
    56  C          0.55934000       0.65744000       0.05114000
    57  C          0.94344000       0.59687000       0.26274000
    58  C          0.05656000       0.09687000       0.23726000
    59  C          0.05656000       0.40313000       0.73726000
    60  C          0.94344000       0.90313000       0.76274000
    61  H         -0.00521000       0.58121700       0.21747400
    62  H          0.00521000       0.08121700       0.28252600
    63  H          0.00521000       0.41878300       0.78252600
    64  H         -0.00521000       0.91878300       0.71747400
    65  C          0.60704000       0.92896000       0.62874000
    66  C          0.39296000       0.42896000       0.87126000
    67  C          0.39296000       0.07104000       0.37126000
    68  C          0.60704000       0.57104000       0.12874000
    69  H          0.67522700       0.96717200       0.62336900
    70  H          0.32477300       0.46717200       0.87663100
    71  H          0.32477300       0.03282800       0.37663100
    72  H          0.67522700       0.53282800       0.12336900
    73  C          0.86174000       0.70287000       0.24414000
    74  C          0.13826000       0.20287000       0.25586000
    75  C          0.13826000       0.29713000       0.75586000
    76  C          0.86174000       0.79713000       0.74414000
    77  H          0.85697800       0.75693000       0.18586500
    78  H          0.14302200       0.25693000       0.31413500
    79  H          0.14302200       0.24307000       0.81413500
    80  H          0.85697800       0.74307000       0.68586500
    81  C          0.39194000       0.92486000       0.80634000
    82  C          0.60806000       0.42486000       0.69366000
    83  C          0.60806000       0.07514000       0.19366000
    84  C          0.39194000       0.57514000       0.30634000
    85  H          0.42301700       0.97935500       0.85777700
    86  H          0.57698300       0.47935500       0.64222300
    87  H          0.57698300       0.02064500       0.14222300
    88  H          0.42301700       0.52064500       0.35777700
    89  C          0.62114000       0.81177000       0.46244000
    90  C          0.37886000       0.31177000       0.03756000
    91  C          0.37886000       0.18823000       0.53756000
    92  C          0.62114000       0.68823000       0.96244000
    93  H          0.65968000       0.90597200       0.44409400
    94  H          0.34032000       0.40597200       0.05590600
    95  H          0.34032000       0.09402800       0.55590600
    96  H          0.65968000       0.59402800       0.94409400
    97  H          0.57483700       0.77980100       0.40922300
    98  H          0.42516300       0.27980100       0.09077700
    99  H          0.42516300       0.22019900       0.59077700
   100  H          0.57483700       0.72019900       0.90922300
   101  C          0.78734000       0.72726000       0.31314000
   102  C          0.21266000       0.22726000       0.18686000
   103  C          0.21266000       0.27274000       0.68686000
   104  C          0.78734000       0.77274000       0.81314000
   105  H          0.73282800       0.79947400       0.30224100
   106  H          0.26717200       0.29947400       0.19775900
   107  H          0.26717200       0.20052600       0.69775900
   108  H          0.73282800       0.70052600       0.80224100
   109  C          0.55404000       0.95626000       0.71084000
   110  C          0.44596000       0.45626000       0.78916000
   111  C          0.44596000       0.04374000       0.28916000
   112  C          0.55404000       0.54374000       0.21084000
   113  H          0.58652800       0.01322600       0.76063000
   114  H          0.41347200       0.51322600       0.73937000
   115  H          0.41347200      -0.01322600       0.23937000
   116  H          0.58652800       0.48677400       0.26063000
   117  C          0.24324000       0.78556000       0.73514000
   118  C          0.75676000       0.28556000       0.76486000
   119  C          0.75676000       0.21444000       0.26486000
   120  C          0.24324000       0.71444000       0.23514000
   121  H          0.17482300       0.74754400       0.74058800
   122  H          0.82517700       0.24754400       0.75941200
   123  H          0.82517700       0.25245600       0.25941200
   124  H          0.17482300       0.75245600       0.24058800
   125  C          0.29594000       0.75856000       0.65194000
   126  C          0.70406000       0.25856000       0.84806000
   127  C          0.70406000       0.24144000       0.34806000
   128  C          0.29594000       0.74144000       0.15194000
   129  H          0.26305800       0.70385500       0.60130600
   130  H          0.73694200       0.20385500       0.89869400
   131  H          0.73694200       0.29614500       0.39869400
   132  H          0.26305800       0.79614500       0.10130600
