data_KARGIW
_symmetry_space_group_name_H-M    'P1'
_symmetry_Int_Tables_number       1
loop_
_symmetry_equiv_pos_site_id
_symmetry_equiv_pos_as_xyz
1 x,y,z
_cell_length_a                   15.554417
_cell_length_b                   7.030012
_cell_length_c                   7.36176
_cell_angle_alpha                90.0
_cell_angle_beta                 90.0
_cell_angle_gamma                90.0
loop_
_atom_site_label
_atom_site_type_symbol
_atom_site_fract_x
_atom_site_fract_y
_atom_site_fract_z
     1  O          0.39163000       0.79821100       0.37105000
     2  O          0.60837000       0.20178900       0.87105000
     3  O          0.89163000       0.20178900       0.37105000
     4  O          0.10837000       0.79821100       0.87105000
     5  O          0.47172000       0.84031200       0.61574000
     6  O          0.52828000       0.15968800       0.11574000
     7  O          0.97172000       0.15968800       0.61574000
     8  O          0.02828000       0.84031200       0.11574000
     9  C          0.45313000       0.87401500       0.46046000
    10  C          0.54687000       0.12598500       0.96046000
    11  C          0.95313000       0.12598500       0.46046000
    12  C          0.04687000       0.87401500       0.96046000
    13  H          0.48660000       0.96340000       0.39990000
    14  H          0.51340000       0.03660000       0.89990000
    15  H          0.98660000       0.03660000       0.39990000
    16  H          0.01340000       0.96340000       0.89990000
    17  H          0.35340000       0.70318000       0.43890000
    18  H          0.64660000       0.29682000       0.93890000
    19  H          0.85340000       0.29682000       0.43890000
    20  H          0.14660000       0.70318000       0.93890000
    21  C          0.33213000       0.37281700       0.57405000
    22  C          0.66787000       0.62718300       0.07405000
    23  C          0.83213000       0.62718300       0.57405000
    24  C          0.16787000       0.37281700       0.07405000
    25  C          0.21212000       0.55891700       0.50965000
    26  C          0.78788000       0.44108300       0.00965000
    27  C          0.71212000       0.44108300       0.50965000
    28  C          0.28788000       0.55891700       0.00965000
    29  N          0.29798190       0.53371300       0.51484000
    30  N          0.70201810       0.46628700       0.01484000
    31  N          0.79798190       0.46628700       0.51484000
    32  N          0.20201810       0.53371300       0.01484000
    33  C          0.17913000       0.74731700       0.44407000
    34  C          0.82087000       0.25268300       0.94407000
    35  C          0.67913000       0.25268300       0.44407000
    36  C          0.32087000       0.74731700       0.94407000
    37  H          0.14720000       0.80800000       0.53950000
    38  H          0.85280000       0.19200000       0.03950000
    39  H          0.64720000       0.19200000       0.53950000
    40  H          0.35280000       0.80800000       0.03950000
    41  H          0.14230000       0.72790000       0.34100000
    42  H          0.85770000       0.27210000       0.84100000
    43  H          0.64230000       0.27210000       0.34100000
    44  H          0.35770000       0.72790000       0.84100000
    45  H          0.22660000       0.82650000       0.40960000
    46  H          0.77340000       0.17350000       0.90960000
    47  H          0.72660000       0.17350000       0.40960000
    48  H          0.27340000       0.82650000       0.90960000
    49  C          0.15903000       0.41351700       0.56756000
    50  C          0.84097000       0.58648300       0.06756000
    51  C          0.65903000       0.58648300       0.56756000
    52  C          0.34097000       0.41351700       0.06756000
    53  H          0.09960000       0.42880000       0.56380000
    54  H          0.90040000       0.57120000       0.06380000
    55  H          0.59960000       0.57120000       0.56380000
    56  H          0.40040000       0.42880000       0.06380000
    57  C          0.28123000       0.22691600       0.63316000
    58  C          0.71877000       0.77308400       0.13316000
    59  C          0.78123000       0.77308400       0.63316000
    60  C          0.21877000       0.22691600       0.13316000
    61  H          0.30560000       0.11440000       0.67520000
    62  H          0.69440000       0.88560000       0.17520000
    63  H          0.80560000       0.88560000       0.67520000
    64  H          0.19440000       0.11440000       0.17520000
    65  C          0.42902000       0.36171800       0.57367000
    66  C          0.57098000       0.63828200       0.07367000
    67  C          0.92902000       0.63828200       0.57367000
    68  C          0.07098000       0.36171800       0.07367000
    69  H          0.44920000       0.35200000       0.45080000
    70  H          0.55080000       0.64800000       0.95080000
    71  H          0.94920000       0.64800000       0.45080000
    72  H          0.05080000       0.35200000       0.95080000
    73  H          0.44700000       0.25180000       0.64100000
    74  H          0.55300000       0.74820000       0.14100000
    75  H          0.94700000       0.74820000       0.64100000
    76  H          0.05300000       0.25180000       0.14100000
    77  H          0.45230000       0.47410000       0.62890000
    78  H          0.54770000       0.52590000       0.12890000
    79  H          0.95230000       0.52590000       0.62890000
    80  H          0.04770000       0.47410000       0.12890000
    81  C          0.19323000       0.24920000       0.62936000
    82  C          0.80677000       0.75080000       0.12936000
    83  C          0.69323000       0.75080000       0.62936000
    84  C          0.30677000       0.24920000       0.12936000
    85  H          0.15750000       0.15170000       0.66910000
    86  H          0.84250000       0.84830000       0.16910000
    87  H          0.65750000       0.84830000       0.66910000
    88  H          0.34250000       0.15170000       0.16910000
