data_KARHOA
_symmetry_space_group_name_H-M    'P1'
_symmetry_Int_Tables_number       1
loop_
_symmetry_equiv_pos_site_id
_symmetry_equiv_pos_as_xyz
1 x,y,z
_cell_length_a                   7.2431
_cell_length_b                   12.1353
_cell_length_c                   11.2194
_cell_angle_alpha                90.0
_cell_angle_beta                 103.362
_cell_angle_gamma                90.0
loop_
_atom_site_label
_atom_site_type_symbol
_atom_site_fract_x
_atom_site_fract_y
_atom_site_fract_z
     1  S          0.59482000       0.04920000       0.24881000
     2  S          0.40518000       0.54920000       0.75119000
     3  S          0.42042000       0.20402000       0.05241000
     4  S          0.57958000       0.70402000       0.94759000
     5  S          0.42542000       0.39572000       0.25301000
     6  S          0.57458000       0.89572000       0.74699000
     7  S          0.59602000       0.24172000       0.45191000
     8  S          0.40398000       0.74172000       0.54809000
     9  C          0.55610000       0.00818000       0.09868000
    10  C          0.44390000       0.50818000       0.90132000
    11  C          0.47710000       0.07446000       0.01137000
    12  C          0.52290000       0.57446000      -0.01137000
    13  C          0.50618000       0.18436000       0.20955000
    14  C          0.49382000       0.68436000       0.79045000
    15  C          0.50898000       0.26366000       0.29536000
    16  C          0.49102000       0.76366000       0.70464000
    17  C          0.48410000       0.44666000       0.40186000
    18  C          0.51590000       0.94666000       0.59814000
    19  C          0.56010000       0.37946000       0.49166000
    20  C          0.43990000       0.87946000       0.50834000
    21  H          0.59580000       0.95850000       0.09360000
    22  H          0.40420000       0.45850000       0.90640000
    23  H          0.45890000       0.07160000       0.91540000
    24  H          0.54110000       0.57160000       0.08460000
    25  H          0.45470000       0.51550000       0.40350000
    26  H          0.54530000       0.01550000       0.59650000
    27  H          0.59470000       0.40450000       0.58250000
    28  H          0.40530000       0.90450000       0.41750000
    29  O          0.10966000       0.00594000       0.25694000
    30  O          0.89034000       0.50594000       0.74306000
    31  O          0.21049000       0.29825000       0.76494000
    32  O          0.78951000       0.79825000       0.23506000
    33  O          0.26510000       0.13095000       0.72604000
    34  O          0.73490000       0.63095000       0.27396000
    35  O          0.85988000       0.10775000       0.77656000
    36  O          0.14012000       0.60775000       0.22344000
    37  O          0.70510000       0.25845000       0.74175000
    38  O          0.29490000       0.75845000       0.25825000
    39  N          0.20778000       0.22356000       0.69145000
    40  N          0.79222000       0.72356000       0.30855000
    41  N          0.80698000       0.19476000       0.81095000
    42  N          0.19302000       0.69476000       0.18905000
    43  C          0.06218000       0.10115000       0.25365000
    44  C          0.93782000       0.60115000       0.74635000
    45  C          0.07527000       0.17745000       0.36075000
    46  C          0.92473000       0.67745000       0.63925000
    47  C          0.13879000       0.15626000       0.48285000
    48  C          0.86121000       0.65626000       0.51715000
    49  C          0.13888000       0.24376000       0.56295000
    50  C          0.86112000       0.74376000       0.43705000
    51  C          0.07759000       0.34806000       0.52346000
    52  C          0.92241000       0.84806000       0.47654000
    53  C          0.01529000       0.36796000       0.39855000
    54  C         -0.01529000       0.86796000       0.60145000
    55  C          0.01407000       0.28335000       0.31735000
    56  C         -0.01407000       0.78335000       0.68265000
    57  C          0.95907000       0.28015000       0.18225000
    58  C          0.04093000       0.78015000       0.81775000
    59  C          0.88969000       0.35915000       0.09725000
    60  C          0.11031000       0.85915000       0.90275000
    61  C          0.84410000       0.33196000       0.97404000
    62  C          0.15590000       0.83196000       0.02596000
    63  C          0.86588000       0.22386000       0.93905000
    64  C          0.13412000       0.72386000       0.06095000
    65  C          0.93910000       0.14176000       0.02296000
    66  C          0.06090000       0.64176000       0.97704000
    67  C         -0.01732000       0.17075000       0.14344000
    68  C          0.01732000       0.67075000       0.85656000
    69  H          0.19880000       0.09260000       0.50350000
    70  H          0.80120000       0.59260000       0.49650000
    71  H          0.07180000       0.39450000       0.58050000
    72  H          0.92820000       0.89450000       0.41950000
    73  H         -0.01830000       0.43350000       0.36940000
    74  H          0.01830000       0.93350000       0.63060000
    75  H          0.87860000       0.42840000       0.12140000
    76  H          0.12140000       0.92840000       0.87860000
    77  H          0.79270000       0.38150000       0.90750000
    78  H          0.20730000       0.88150000       0.09250000
    79  H          0.96380000       0.08360000      -0.00260000
    80  H          0.03620000       0.58360000       0.00260000
