data_KARWAE
_symmetry_space_group_name_H-M    'P1'
_symmetry_Int_Tables_number       1
loop_
_symmetry_equiv_pos_site_id
_symmetry_equiv_pos_as_xyz
1 x,y,z
_cell_length_a                   7.96145
_cell_length_b                   10.59377
_cell_length_c                   17.359211
_cell_angle_alpha                90.0
_cell_angle_beta                 93.1793
_cell_angle_gamma                90.0
loop_
_atom_site_label
_atom_site_type_symbol
_atom_site_fract_x
_atom_site_fract_y
_atom_site_fract_z
     1  C          0.71673000       0.52543000       0.18263160
     2  C          0.28327000       0.02543000       0.81736840
     3  C          0.56293000       0.52783000       0.23432150
     4  C          0.43707000       0.02783000       0.76567850
     5  H          0.60430000       0.56280000       0.28540000
     6  H          0.39570000       0.06280000       0.71460000
     7  C          0.37613000       0.36223000       0.27831160
     8  C          0.62387000       0.86223000       0.72168840
     9  C          0.28853000       0.58473000       0.27847150
    10  C          0.71147000       0.08473000       0.72152850
    11  H          0.17640000       0.62090000       0.26160000
    12  H          0.82360000       0.12090000       0.73840000
    13  C          0.40173000       0.59903000       0.21071150
    14  C          0.59827000       0.09903000       0.78928850
    15  H          0.43020000       0.69040000       0.20550000
    16  H          0.56980000       0.19040000       0.79450000
    17  C          0.30744000       0.55603000       0.13551160
    18  C          0.69256000       0.05603000       0.86448840
    19  H          0.37250000       0.57940000       0.09140000
    20  H          0.62750000       0.07940000       0.90860000
    21  H          0.19690000       0.59690000       0.13080000
    22  H          0.80310000       0.09690000       0.86920000
    23  H          0.29270000       0.46410000       0.13640000
    24  H          0.70730000       0.96410000       0.86360000
    25  C          0.34303000       0.64783000       0.35620150
    26  C          0.65697000       0.14783000       0.64379850
    27  H          0.44960000       0.60730000       0.37690000
    28  H          0.55040000       0.10730000       0.62310000
    29  C          0.37593000       0.78833000       0.34358150
    30  C          0.62407000       0.28833000       0.65641850
    31  H          0.46360000       0.79510000       0.30550000
    32  H          0.53640000       0.29510000       0.69450000
    33  H          0.27180000       0.82520000       0.31920000
    34  H          0.72820000       0.32520000       0.68080000
    35  C          0.43033000       0.87173000       0.41237150
    36  C          0.56967000       0.37173000       0.58762850
    37  C          0.34994000       0.91163000       0.53426160
    38  C          0.65006000       0.41163000       0.46573840
    39  C          0.55943000       0.81443000       0.47178150
    40  C          0.44057000       0.31443000       0.52821850
    41  H          0.53960000       0.72140000       0.47530000
    42  H          0.46040000       0.22140000       0.52470000
    43  C          0.74613000       0.83813000       0.46106150
    44  C          0.25387000       0.33813000       0.53893850
    45  H          0.76940000       0.93060000       0.46560000
    46  H          0.23060000       0.43060000       0.53440000
    47  C          0.78463000       0.79413000       0.38138150
    48  C          0.21537000       0.29413000       0.61861850
    49  H          0.74540000       0.71260000       0.36620000
    50  H          0.25460000       0.21260000       0.63380000
    51  C          0.86893000       0.85913000       0.33023160
    52  C          0.13107000       0.35913000       0.66976840
    53  C          0.89663000       0.80033000       0.25378150
    54  C          0.10337000       0.30033000       0.74621850
    55  C          0.76983000       0.65873000       0.15818150
    56  C          0.23017000       0.15873000       0.84181850
    57  H          0.89080000       0.65460000       0.14560000
    58  H          0.10920000       0.15460000       0.85440000
    59  C          0.67324000       0.72463000       0.09098160
    60  C          0.32676000       0.22463000       0.90901840
    61  H          0.63810000       0.66130000       0.05140000
    62  H          0.36190000       0.16130000       0.94860000
    63  H          0.57040000       0.76400000       0.10980000
    64  H          0.42960000       0.26400000       0.89020000
    65  C          0.77964000       0.82524000       0.05482000
    66  C          0.22036000       0.32524000       0.94518000
    67  H          0.81660000       0.88700000       0.09420000
    68  H          0.18340000       0.38700000       0.90580000
    69  H          0.71270000       0.86790000       0.01350000
    70  H          0.28730000       0.36790000       0.98650000
    71  H          0.87810000       0.78570000       0.03350000
    72  H          0.12190000       0.28570000       0.96650000
    73  C          0.68724000       0.43273000       0.11397170
    74  C          0.31276000       0.93273000       0.88602830
    75  H          0.64090000       0.35340000       0.13420000
    76  H          0.35910000       0.85340000       0.86580000
    77  H          0.59970000       0.46950000       0.07790000
    78  H          0.40030000       0.96950000       0.92210000
    79  C          0.83664000       0.39933000       0.06831180
    80  C          0.16336000       0.89933000       0.93168820
    81  C          0.20523000       0.62363000       0.41299150
    82  C          0.79477000       0.12363000       0.58700850
    83  H          0.24670000       0.64790000       0.46510000
    84  H          0.75330000       0.14790000       0.53490000
    85  H          0.17580000       0.53380000       0.41230000
    86  H          0.82420000       0.03380000       0.58770000
    87  H          0.10540000       0.67380000       0.39780000
    88  H          0.89460000       0.17380000       0.60220000
    89  C          0.47753000       0.00243000       0.38554160
    90  C          0.52247000       0.50243000       0.61445840
    91  H          0.38160000       0.04010000       0.35610000
    92  H          0.61840000       0.54010000       0.64390000
    93  H          0.57350000      -0.00360000       0.35280000
    94  H          0.42650000       0.49640000       0.64720000
    95  H          0.50780000       0.05540000       0.43050000
    96  H          0.49220000       0.55540000       0.56950000
    97  C          0.85403000       0.76703000       0.52366160
    98  C          0.14597000       0.26703000       0.47633840
    99  H          0.84120000       0.67580000       0.51580000
   100  H          0.15880000       0.17580000       0.48420000
   101  H          0.81690000       0.78960000       0.57470000
   102  H          0.18310000       0.28960000       0.42530000
   103  H          0.97240000       0.79030000       0.52020000
   104  H          0.02760000       0.29030000       0.47980000
   105  C          0.94924000      -0.01297000       0.34377170
   106  C          0.05076000       0.48703000       0.65622830
   107  H          0.86290000       0.05280000       0.33770000
   108  H          0.13710000       0.55280000       0.66230000
   109  H          0.03490000       0.00070000       0.30620000
   110  H          0.96510000       0.50070000       0.69380000
   111  H          0.00180000      -0.00950000       0.39610000
   112  H         -0.00180000       0.49050000       0.60390000
   113  N          0.86693000       0.48722000       0.23344140
   114  N          0.13307000      -0.01278000       0.76655860
   115  N          0.86803000       0.37993000       0.26107140
   116  N          0.13197000       0.87993000       0.73892860
   117  N          0.88764000       0.28513000       0.28937190
   118  N          0.11236000       0.78513000       0.71062810
   119  O          0.75952000       0.73581180       0.22737100
   120  O          0.24048000       0.23581180       0.77262900
   121  O          0.52072000       0.39615190       0.24739110
   122  O          0.47928000       0.89615190       0.75260890
   123  O          0.26262000       0.44984190       0.29325110
   124  O          0.73738000       0.94984190       0.70674890
   125  O          0.34903000       0.25312000       0.29021130
   126  O          0.65097000       0.75312000       0.70978870
   127  O          0.28742000       0.89047190       0.46255110
   128  O          0.71258000       0.39047190       0.53744890
   129  O          0.51292000       0.87402000       0.54304110
   130  O          0.48708000       0.37402000       0.45695890
   131  O          0.27553000       0.95862000       0.58472120
   132  O          0.72447000       0.45862000       0.41527880
   133  O          0.02352000       0.81032000       0.21953110
   134  O          0.97648000       0.31032000       0.78046890
   135  F          0.91632000       0.50042000       0.04166110
   136  F          0.08368000       0.00042000       0.95833890
   137  F          0.78522000       0.33082000       0.00662110
   138  F          0.21478000       0.83082000      -0.00662110
   139  F          0.95222000       0.33082000       0.10807120
   140  F          0.04778000       0.83082000       0.89192880
   141  C          0.46185000       0.05434000       0.12212000
   142  C          0.53815000       0.55434000       0.87788000
   143  C          0.60465000       0.06694000       0.18252000
   144  C          0.39535000       0.56694000       0.81748000
   145  H          0.70890000       0.08580000       0.15740000
   146  H          0.29110000       0.58580000       0.84260000
   147  H          0.61770000      -0.01250000       0.21120000
   148  H          0.38230000       0.48750000       0.78880000
   149  H          0.57980000       0.13530000       0.21810000
   150  H          0.42020000       0.63530000       0.78190000
   151  C          0.29336000       0.03125000       0.15033000
   152  C          0.70664000       0.53125000       0.84967000
   153  H          0.20830000       0.04290000       0.10780000
   154  H          0.79170000       0.54290000       0.89220000
   155  H          0.27230000       0.09070000       0.19190000
   156  H          0.72770000       0.59070000       0.80810000
   157  H          0.28730000       0.94470000       0.16980000
   158  H          0.71270000       0.44470000       0.83020000
   159  O          0.48664000       0.06074000       0.05433160
   160  O          0.51336000       0.56074000       0.94566840
