data_KAWYUG
_symmetry_space_group_name_H-M    'P1'
_symmetry_Int_Tables_number       1
loop_
_symmetry_equiv_pos_site_id
_symmetry_equiv_pos_as_xyz
1 x,y,z
_cell_length_a                   8.4092
_cell_length_b                   16.6401
_cell_length_c                   11.2741
_cell_angle_alpha                90.0
_cell_angle_beta                 101.372
_cell_angle_gamma                90.0
loop_
_atom_site_label
_atom_site_type_symbol
_atom_site_fract_x
_atom_site_fract_y
_atom_site_fract_z
     1  S          0.30843000       0.42303150       0.39742000
     2  S          0.30843000       0.57696850       0.89742000
     3  S          0.35644000       0.27188190       0.21713000
     4  S          0.35644000       0.72811810       0.71713000
     5  O          0.19568000       0.46524000       0.45638000
     6  O          0.19568000       0.53476000       0.95638000
     7  O          0.28389000       0.42874000       0.26696000
     8  O          0.28389000       0.57126000       0.76696000
     9  N          0.96691300       0.54077000       0.59581000
    10  N          0.96691300       0.45923000       0.09581000
    11  H          0.04855000       0.52492000       0.56323800
    12  H          0.04855000       0.47508000       0.06323800
    13  H         -0.01625900       0.57462000       0.65690800
    14  H         -0.01625900       0.42538000       0.15690800
    15  N          0.30461100       0.33115000       0.43807000
    16  N          0.30461100       0.66885000       0.93807000
    17  N          0.31001200       0.19466000       0.40048000
    18  N          0.31001200       0.80534000       0.90048000
    19  H          0.29285700       0.18192100       0.47264300
    20  H          0.29285700       0.81807900       0.97264300
    21  C          0.81531300       0.51276000       0.55209000
    22  C          0.81531300       0.48724000       0.05209000
    23  C          0.68321500       0.53867000       0.59871000
    24  C          0.68321500       0.46133000       0.09871000
    25  H          0.69968700       0.57620700       0.66338300
    26  H          0.69968700       0.42379300       0.16338300
    27  C          0.53021200       0.51126000       0.55409000
    28  C          0.53021200       0.48874000       0.05409000
    29  H          0.44204400       0.52896200       0.58850700
    30  H          0.44204400       0.47103800       0.08850700
    31  C          0.50361200       0.45796000       0.45879000
    32  C          0.50361200       0.54204000       0.95879000
    33  C          0.63191500       0.43167000       0.41129000
    34  C          0.63191500       0.56833000       0.91129000
    35  H          0.61496500       0.39384100       0.34669100
    36  H          0.61496500       0.60615900       0.84669100
    37  C          0.78531300       0.45977000       0.45681100
    38  C          0.78531300       0.54023000       0.95681100
    39  H          0.87298100       0.44208700       0.42157000
    40  H          0.87298100       0.55791300       0.92157000
    41  C          0.32011200       0.27138000       0.36569000
    42  C          0.32011200       0.72862000       0.86569000
    43  C          0.32791700       0.13688000       0.31621400
    44  C          0.32791700       0.86312000       0.81621400
    45  H          0.32375600       0.08054200       0.32992500
    46  H          0.32375600       0.91945800       0.82992500
    47  C          0.35120000       0.16779000       0.21871400
    48  C          0.35120000       0.83221000       0.71871400
    49  H          0.36352100       0.13613600       0.15103900
    50  H          0.36352100       0.86386400       0.65103900
    51  S          0.28983000       0.08167150       0.69333000
    52  S          0.28983000       0.91832850       0.19333000
    53  S          0.17794000       0.22906170       0.85563000
    54  S          0.17794000       0.77093830       0.35563000
    55  O          0.28329000       0.03514000       0.58477000
    56  O          0.28329000       0.96486000       0.08477000
    57  O          0.17819000       0.06224000       0.77177000
    58  O          0.17819000       0.93776000       0.27177000
    59  N          0.96191300       0.05307000       0.97181200
    60  N          0.96191300       0.94693000       0.47181200
    61  H         -0.01953000       0.04669200       0.05084800
    62  H         -0.01953000       0.95330800       0.55084800
    63  H          0.04356000       0.05535200       0.93368800
    64  H          0.04356000       0.94464800       0.43368800
    65  N          0.26861000       0.17375000       0.64757000
    66  N          0.26861000       0.82625000       0.14757000
    67  N          0.22531000       0.30726000       0.67498000
    68  N          0.22531000       0.69274000       0.17498000
    69  H          0.24511400       0.32047200       0.60369800
    70  H          0.24511400       0.67952800       0.10369800
    71  C          0.80361500       0.05937000       0.90721300
    72  C          0.80361500       0.94063000       0.40721300
    73  C          0.77311600       0.06917000       0.78401300
    74  C          0.77311600       0.93083000       0.28401300
    75  H          0.86072900       0.07288400       0.74250400
    76  H          0.86072900       0.92711600       0.24250400
    77  C          0.61491500       0.07366000       0.72001100
    78  C          0.61491500       0.92634000       0.22001100
    79  H          0.59427900       0.07628200       0.63417900
    80  H          0.59427900       0.92371800       0.13417900
    81  C          0.48711200       0.07425000       0.78001000
    82  C          0.48711200       0.92575000       0.28001000
    83  C          0.51461500       0.06756000       0.90421000
    84  C          0.51461500       0.93244000       0.40421000
    85  H          0.42666100       0.06826000       0.94566500
    86  H          0.42666100       0.93174000       0.44566500
    87  C          0.67351900       0.05977000       0.96801100
    88  C          0.67351900       0.94023000       0.46801100
    89  H          0.69375900       0.05462600       0.05357900
    90  H          0.69375900       0.94537400       0.55357900
    91  C          0.22851200       0.23096000       0.71579000
    92  C          0.22851200       0.76904000       0.21579000
    93  C          0.18761500       0.36228000       0.75631500
    94  C          0.18761500       0.63772000       0.25631500
    95  H          0.18363000       0.41835900       0.74060100
    96  H          0.18363000       0.58164100       0.24060100
    97  C          0.15751800       0.33177000       0.85721300
    98  C          0.15751800       0.66823000       0.35721300
    99  H          0.12888600       0.36192300       0.92134500
   100  H          0.12888600       0.63807700       0.42134500
   101  O          0.77929000       0.71485000       0.41687000
   102  O          0.77929000       0.28515000       0.91687000
   103  O          0.61931200       0.74526000       0.54819000
   104  O          0.61931200       0.25474000       0.04819000
   105  O          0.87930000       0.82341000       0.77571600
   106  O          0.87930000       0.17659000       0.27571600
   107  O          0.89620000       0.69019000       0.78461200
   108  O          0.89620000       0.30981000       0.28461200
   109  C          0.68620000       0.68421400       0.20791400
   110  C          0.68620000       0.31578600       0.70791400
   111  H          0.59190500       0.67191900       0.14439400
   112  H          0.59190500       0.32808100       0.64439400
   113  H          0.73882500       0.73323000       0.18646300
   114  H          0.73882500       0.26677000       0.68646300
   115  H          0.76332000       0.63944000       0.21586100
   116  H          0.76332000       0.36056000       0.71586100
   117  C          0.63301500       0.69651100       0.32441100
   118  C          0.63301500       0.30348900       0.82441100
   119  H          0.55489600       0.74160100       0.31746100
   120  H          0.55489600       0.25839900       0.81746100
   121  H          0.57949500       0.64741500       0.34698200
   122  H          0.57949500       0.35258500       0.84698200
   123  C          0.75011300       0.73788000       0.52069000
   124  C          0.75011300       0.26212000       0.02069000
   125  C          0.90851300       0.75758000       0.60179000
   126  C          0.90851300       0.24242000       0.10179000
   127  H          0.94267600       0.81224200       0.58302200
   128  H          0.94267600       0.18775800       0.08302200
   129  H         -0.00762400       0.71917900       0.58671500
   130  H         -0.00762400       0.28082100       0.08671500
   131  C          0.89530000       0.75331000       0.73191400
   132  C          0.89530000       0.24669000       0.23191400
   133  C          0.91730000       0.82020000       0.91441800
   134  C          0.91730000       0.17980000       0.41441800
   135  H          0.96912600       0.76895000       0.94641300
   136  H          0.96912600       0.23105000       0.44641300
   137  H         -0.01841300       0.86645200       0.95179600
   138  H         -0.01841300       0.13354800       0.45179600
   139  C          0.74530000       0.82481600       0.92320000
   140  C          0.74530000       0.17518400       0.42320000
   141  H          0.73646200       0.82360900       0.00881400
   142  H          0.73646200       0.17639100       0.50881400
   143  H          0.69869800       0.87494500       0.88644500
   144  H          0.69869800       0.12505500       0.38644500
   145  H          0.68643500       0.77899300       0.88114700
   146  H          0.68643500       0.22100700       0.38114700
