data_KAXWAJ01
_symmetry_space_group_name_H-M    'P1'
_symmetry_Int_Tables_number       1
loop_
_symmetry_equiv_pos_site_id
_symmetry_equiv_pos_as_xyz
1 x,y,z
_cell_length_a                   8.91301
_cell_length_b                   17.50101
_cell_length_c                   17.11001
_cell_angle_alpha                90.0
_cell_angle_beta                 104.2301
_cell_angle_gamma                90.0
loop_
_atom_site_label
_atom_site_type_symbol
_atom_site_fract_x
_atom_site_fract_y
_atom_site_fract_z
     1  N          0.58087130       0.11249600       0.96863700
     2  N          0.41912870       0.61249600       0.53136300
     3  N          0.41912870       0.88750400       0.03136300
     4  N          0.58087130       0.38750400       0.46863700
     5  N          0.00926130       0.36166600       0.05151700
     6  N         -0.00926130       0.86166600       0.44848300
     7  N         -0.00926130       0.63833400       0.94848300
     8  N          0.00926130       0.13833400       0.55151700
     9  O          0.52848120       0.23001500       0.06901600
    10  O          0.47151880       0.73001500       0.43098400
    11  O          0.47151880       0.76998500       0.93098400
    12  O          0.52848120       0.26998500       0.56901600
    13  O          0.79104120       0.33104500       0.14029600
    14  O          0.20895880       0.83104500       0.35970400
    15  O          0.20895880       0.66895500       0.85970400
    16  O          0.79104120       0.16895500       0.64029600
    17  O          0.07112120       0.24206500       0.95431600
    18  O          0.92887880       0.74206500       0.54568400
    19  O          0.92887880       0.75793500       0.04568400
    20  O          0.07112120       0.25793500       0.45431600
    21  O          0.81465110       0.13506500       0.88734600
    22  O          0.18534890       0.63506500       0.61265400
    23  O          0.18534890       0.86493500       0.11265400
    24  O          0.81465110       0.36493500       0.38734600
    25  C          0.42577160       0.12973800       0.97855900
    26  C          0.57422840       0.62973800       0.52144100
    27  C          0.57422840       0.87026200       0.02144100
    28  C          0.42577160       0.37026200       0.47855900
    29  C          0.43854170       0.16206800       0.06168900
    30  C          0.56145830       0.66206800       0.43831100
    31  C          0.56145830       0.83793200       0.93831100
    32  C          0.43854170       0.33793200       0.56168900
    33  C          0.57415180       0.25502800       0.15089900
    34  C          0.42584820       0.75502800       0.34910100
    35  C          0.42584820       0.74497200       0.84910100
    36  C          0.57415180       0.24497200       0.65089900
    37  C          0.64146170       0.33394800       0.15445900
    38  C          0.35853830       0.83394800       0.34554100
    39  C          0.35853830       0.66605200       0.84554100
    40  C          0.64146170       0.16605200       0.65445900
    41  C          0.85609170       0.40537700       0.14206800
    42  C          0.14390830       0.90537700       0.35793200
    43  C          0.14390830       0.59462300       0.85793200
    44  C          0.85609170       0.09462300       0.64206800
    45  C          0.01698160       0.39732700       0.13032800
    46  C         -0.01698160       0.89732700       0.36967200
    47  C         -0.01698160       0.60267300       0.86967200
    48  C          0.01698160       0.10267300       0.63032800
    49  C          0.16134160       0.35170700       0.03485800
    50  C          0.83865840       0.85170700       0.46514200
    51  C          0.83865840       0.64829300       0.96514200
    52  C          0.16134160       0.14829300       0.53485800
    53  C          0.14278170       0.31460800       0.95312800
    54  C          0.85721830       0.81460800       0.54687200
    55  C          0.85721830       0.68539200       0.04687200
    56  C          0.14278170       0.18539200       0.45312800
    57  C          0.03418170       0.20829800       0.87592800
    58  C          0.96581830       0.70829800       0.62407200
    59  C          0.96581830       0.79170200       0.12407200
    60  C          0.03418170       0.29170200       0.37592800
    61  C          0.96998170       0.12950800       0.88062900
    62  C          0.03001830       0.62950800       0.61937100
    63  C          0.03001830       0.87049200       0.11937100
    64  C          0.96998170       0.37049200       0.38062900
    65  C          0.74426170       0.06198700       0.88643900
    66  C          0.25573830       0.56198700       0.61356100
    67  C          0.25573830       0.93801300       0.11356100
    68  C          0.74426170       0.43801300       0.38643900
    69  C          0.58010160       0.07457800       0.89184800
    70  C          0.41989840       0.57457800       0.60815200
    71  C          0.41989840       0.92542200       0.10815200
    72  C          0.58010160       0.42542200       0.39184800
    73  H          0.36720000       0.08191200       0.97441300
    74  H          0.63280000       0.58191200       0.52558700
    75  H          0.63280000       0.91808800       0.02558700
    76  H          0.36720000       0.41808800       0.47441300
    77  H          0.37420000       0.16721200       0.93661300
    78  H          0.62580000       0.66721200       0.56338700
    79  H          0.62580000       0.83278800       0.06338700
    80  H          0.37420000       0.33278800       0.43661300
    81  H          0.48920000       0.12521100       0.10241200
    82  H          0.51080000       0.62521100       0.39758800
    83  H          0.51080000       0.87478900       0.89758800
    84  H          0.48920000       0.37478900       0.60241200
    85  H          0.33720000       0.17261100       0.06941200
    86  H          0.66280000       0.67261100       0.43058800
    87  H          0.66280000       0.82738900       0.93058800
    88  H          0.33720000       0.32738900       0.56941200
    89  H          0.64920000       0.21981100       0.18291200
    90  H          0.35080000       0.71981100       0.31708800
    91  H          0.35080000       0.78018900       0.81708800
    92  H          0.64920000       0.28018900       0.68291200
    93  H          0.48620000       0.25561000       0.17431200
    94  H          0.51380000       0.75561000       0.32568800
    95  H          0.51380000       0.74439000       0.82568800
    96  H          0.48620000       0.24439000       0.67431200
    97  H          0.64720000       0.35441200       0.20881300
    98  H          0.35280000       0.85441200       0.29118700
    99  H          0.35280000       0.64558800       0.79118700
   100  H          0.64720000       0.14558800       0.70881300
   101  H          0.57320000       0.36681200       0.11331200
   102  H          0.42680000       0.86681200       0.38668800
   103  H          0.42680000       0.63318800       0.88668800
   104  H          0.57320000       0.13318800       0.61331200
   105  H          0.85720000       0.42971000       0.19541100
   106  H          0.14280000       0.92971000       0.30458900
   107  H          0.14280000       0.57029000       0.80458900
   108  H          0.85720000       0.07029000       0.69541100
   109  H          0.79120000       0.43631100       0.09841200
   110  H          0.20880000       0.93631100       0.40158800
   111  H          0.20880000       0.56368900       0.90158800
   112  H          0.79120000       0.06368900       0.59841200
   113  H          0.08320000       0.36611100       0.17401200
   114  H          0.91680000       0.86611100       0.32598800
   115  H          0.91680000       0.63388900       0.82598800
   116  H          0.08320000       0.13388900       0.67401200
   117  H          0.06320000       0.44781100       0.12791100
   118  H          0.93680000       0.94781100       0.37208900
   119  H          0.93680000       0.55218900       0.87208900
   120  H          0.06320000       0.05218900       0.62791100
   121  H          0.23020000       0.32141100       0.07741200
   122  H          0.76980000       0.82141100       0.42258800
   123  H          0.76980000       0.67858900       0.92258800
   124  H          0.23020000       0.17858900       0.57741200
   125  H          0.20920000       0.40291100       0.03431100
   126  H          0.79080000       0.90291100       0.46568900
   127  H          0.79080000       0.59708900       0.96568900
   128  H          0.20920000       0.09708900       0.53431100
   129  H          0.24420000       0.30801000       0.94141100
   130  H          0.75580000       0.80801000       0.55858900
   131  H          0.75580000       0.69199000       0.05858900
   132  H          0.24420000       0.19199000       0.44141100
   133  H          0.07820000       0.34571200       0.91121200
   134  H          0.92180000       0.84571200       0.58878800
   135  H          0.92180000       0.65428800       0.08878800
   136  H          0.07820000       0.15428800       0.41121200
   137  H          0.12720000       0.20421000       0.85581100
   138  H          0.87280000       0.70421000       0.64418900
   139  H          0.87280000       0.79579000       0.14418900
   140  H          0.12720000       0.29579000       0.35581100
   141  H          0.95820000       0.23901100       0.84051200
   142  H          0.04180000       0.73901100       0.65948800
   143  H          0.04180000       0.76098900       0.15948800
   144  H          0.95820000       0.26098900       0.34051200
   145  H          0.03220000       0.10221100       0.92741200
   146  H          0.96780000       0.60221100       0.57258800
   147  H          0.96780000       0.89778900       0.07258800
   148  H          0.03220000       0.39778900       0.42741200
   149  H          0.97220000       0.10121100       0.82981200
   150  H          0.02780000       0.60121100       0.67018800
   151  H          0.02780000       0.89878900       0.17018800
   152  H          0.97220000       0.39878900       0.32981200
   153  H          0.80020000       0.03031100       0.93281200
   154  H          0.19980000       0.53031100       0.56718800
   155  H          0.19980000       0.96968900       0.06718800
   156  H          0.80020000       0.46968900       0.43281200
   157  H          0.74620000       0.03591200       0.83661300
   158  H          0.25380000       0.53591200       0.66338700
   159  H          0.25380000       0.96408800       0.16338700
   160  H          0.74620000       0.46408800       0.33661300
   161  H          0.52720000       0.02611100       0.89041200
   162  H          0.47280000       0.52611100       0.60958800
   163  H          0.47280000       0.97388900       0.10958800
   164  H          0.52720000       0.47388900       0.39041200
   165  H          0.52420000       0.10531100       0.84471200
   166  H          0.47580000       0.60531100       0.65528800
   167  H          0.47580000       0.89468900       0.15528800
   168  H          0.52420000       0.39468900       0.34471200
   169  H          0.63220000       0.15701200       0.96921200
   170  H          0.36780000       0.65701200       0.53078800
   171  H          0.36780000       0.84298800       0.03078800
   172  H          0.63220000       0.34298800       0.46921200
   173  H          0.96420000       0.31791200       0.05251200
   174  H          0.03580000       0.81791200       0.44748800
   175  H          0.03580000       0.68208800       0.94748800
   176  H          0.96420000       0.18208800       0.55251200
   177  O          0.71225890       0.73795500       0.74991600
   178  O          0.28774110       0.23795500       0.75008400
   179  O          0.28774110       0.26204500       0.25008400
   180  O          0.71225890       0.76204500       0.24991600
   181  O          0.25881120       0.96180500       0.90056600
   182  O          0.74118880       0.46180500       0.59943400
   183  O          0.74118880       0.03819500       0.09943400
   184  O          0.25881120       0.53819500       0.40056600
   185  O          0.16906880       0.94864500       0.55944600
   186  O          0.83093120       0.44864500       0.94055400
   187  O          0.83093120       0.05135500       0.44055400
   188  O          0.16906880       0.55135500       0.05944600
   189  C          0.71364850       0.80758300       0.73972700
   190  C          0.28635150       0.30758300       0.76027300
   191  C          0.28635150       0.19241700       0.26027300
   192  C          0.71364850       0.69241700       0.23972700
   193  C          0.85429850       0.85171300       0.78044800
   194  C          0.14570150       0.35171300       0.71955200
   195  C          0.14570150       0.14828700       0.21955200
   196  C          0.85429850       0.64828700       0.28044800
   197  C          0.91754840       0.91072300       0.74400800
   198  C          0.08245160       0.41072300       0.75599200
   199  C          0.08245160       0.08927700       0.25599200
   200  C          0.91754840       0.58927700       0.24400800
   201  C          0.05506160       0.94572300       0.78418800
   202  C          0.94493840       0.44572300       0.71581200
   203  C          0.94493840       0.05427700       0.21581200
   204  C          0.05506160       0.55427700       0.28418800
   205  C          0.12820150       0.92441300       0.86337800
   206  C          0.87179850       0.42441300       0.63662200
   207  C          0.87179850       0.07558700       0.13662200
   208  C          0.12820150       0.57558700       0.36337800
   209  C          0.06390150       0.86640300       0.90083800
   210  C          0.93609850       0.36640300       0.59916200
   211  C          0.93609850       0.13359700       0.09916200
   212  C          0.06390150       0.63359700       0.40083800
   213  C          0.93090850       0.82967300       0.85875800
   214  C          0.06909150       0.32967300       0.64124200
   215  C          0.06909150       0.17032700       0.14124200
   216  C          0.93090850       0.67032700       0.35875800
   217  C          0.57531850       0.84695300       0.69037800
   218  C          0.42468150       0.34695300       0.80962200
   219  C          0.42468150       0.15304700       0.30962200
   220  C          0.57531850       0.65304700       0.19037800
   221  C          0.55093840       0.92585300       0.69342800
   222  C          0.44906160       0.42585300       0.80657200
   223  C          0.44906160       0.07414700       0.30657200
   224  C          0.55093840       0.57414700       0.19342800
   225  C          0.41491840       0.95905300       0.64990900
   226  C          0.58508160       0.45905300       0.85009100
   227  C          0.58508160       0.04094700       0.35009100
   228  C          0.41491840       0.54094700       0.14990900
   229  C          0.29858840       0.91387300       0.60131800
   230  C          0.70141160       0.41387300       0.89868200
   231  C          0.70141160       0.08612700       0.39868200
   232  C          0.29858840       0.58612700       0.10131800
   233  C          0.32043840       0.83449300       0.59899800
   234  C          0.67956160       0.33449300       0.90100200
   235  C          0.67956160       0.16550700       0.40100200
   236  C          0.32043840       0.66550700       0.09899800
   237  C          0.45631840       0.80228300       0.64301800
   238  C          0.54368160       0.30228300       0.85698200
   239  C          0.54368160       0.19771700       0.35698200
   240  C          0.45631840       0.69771700       0.14301800
   241  H          0.86780000       0.92548900       0.68901200
   242  H          0.13220000       0.42548900       0.81098800
   243  H          0.13220000       0.07451100       0.31098800
   244  H          0.86780000       0.57451100       0.18901200
   245  H          0.10320000       0.98508900       0.75821100
   246  H          0.89680000       0.48508900       0.74178900
   247  H          0.89680000       0.01491100       0.24178900
   248  H          0.10320000       0.51491100       0.25821100
   249  H          0.10920000       0.85268900       0.95561200
   250  H          0.89080000       0.35268900       0.54438800
   251  H          0.89080000       0.14731100       0.04438800
   252  H          0.10920000       0.64731100       0.45561200
   253  H          0.88680000       0.78988900       0.88471100
   254  H          0.11320000       0.28988900       0.61528900
   255  H          0.11320000       0.21011100       0.11528900
   256  H          0.88680000       0.71011100       0.38471100
   257  H          0.62780000       0.95738900       0.72561200
   258  H          0.37220000       0.45738900       0.77438800
   259  H          0.37220000       0.04261100       0.27438800
   260  H          0.62780000       0.54261100       0.22561200
   261  H          0.39880000       0.01371200       0.65191200
   262  H          0.60120000       0.51371200       0.84808800
   263  H          0.60120000       0.98628800       0.34808800
   264  H          0.39880000       0.48628800       0.15191200
   265  H          0.24080000       0.80098900       0.56831200
   266  H          0.75920000       0.30098900       0.93168800
   267  H          0.75920000       0.19901100       0.43168800
   268  H          0.24080000       0.69901100       0.06831200
   269  H          0.47180000       0.74758900       0.64161200
   270  H          0.52820000       0.24758900       0.85838800
   271  H          0.52820000       0.25241100       0.35838800
   272  H          0.47180000       0.75241100       0.14161200
   273  H          0.30830000       0.93638500       0.94481700
   274  H          0.69170000       0.43638500       0.55518300
   275  H          0.69170000       0.06361500       0.05518300
   276  H          0.30830000       0.56361500       0.44481700
   277  H          0.11060000       0.91428200       0.52091900
   278  H          0.88940000       0.41428200       0.97908100
   279  H          0.88940000       0.08571800       0.47908100
   280  H          0.11060000       0.58571800       0.02091900
