data_KAYXEO
_symmetry_space_group_name_H-M    'P1'
_symmetry_Int_Tables_number       1
loop_
_symmetry_equiv_pos_site_id
_symmetry_equiv_pos_as_xyz
1 x,y,z
_cell_length_a                   11.8352
_cell_length_b                   9.4871
_cell_length_c                   17.0993
_cell_angle_alpha                90.0
_cell_angle_beta                 90.021
_cell_angle_gamma                90.0
loop_
_atom_site_label
_atom_site_type_symbol
_atom_site_fract_x
_atom_site_fract_y
_atom_site_fract_z
     1  S          0.31849700       0.37821000       0.66245600
     2  S          0.18150300       0.87821000       0.33754400
     3  S          0.68150300       0.62179000       0.33754400
     4  S          0.81849700       0.12179000       0.66245600
     5  S          0.50306800       0.02598900       0.79063600
     6  S         -0.00306800       0.52598900       0.20936400
     7  S          0.49693200       0.97401100       0.20936400
     8  S          0.00306800       0.47401100       0.79063600
     9  P          0.43254600       0.20736800       0.77634500
    10  P          0.06745400       0.70736800       0.22365500
    11  P          0.56745400       0.79263200       0.22365500
    12  P          0.93254600       0.29263200       0.77634500
    13  O          0.38522000       0.27552000       0.85611000
    14  O          0.11478000       0.77552000       0.14389000
    15  O          0.61478000       0.72448000       0.14389000
    16  O          0.88522000       0.22448000       0.85611000
    17  N          0.51102000       0.33403000       0.74211000
    18  N         -0.01102000       0.83403000       0.25789000
    19  N          0.48898000       0.66597000       0.25789000
    20  N          0.01102000       0.16597000       0.74211000
    21  N          0.49972000       0.53213000       0.65892000
    22  N          0.00028000       0.03213000       0.34108000
    23  N          0.50028000       0.46787000       0.34108000
    24  N         -0.00028000       0.96787000       0.65892000
    25  N          0.67822000       0.61923000       0.63652000
    26  N          0.82178000       0.11923000       0.36348000
    27  N          0.32178000       0.38077000       0.36348000
    28  N          0.17822000       0.88077000       0.63652000
    29  N          0.60182000       0.63833000       0.76132000
    30  N          0.89818000       0.13833000       0.23868000
    31  N          0.39818000       0.36167000       0.23868000
    32  N          0.10182000       0.86167000       0.76132000
    33  C          0.45992000       0.41823000       0.69272000
    34  C          0.04008000       0.91823000       0.30728000
    35  C          0.54008000       0.58177000       0.30728000
    36  C          0.95992000       0.08177000       0.69272000
    37  C          0.31323000       0.20933000       0.70872000
    38  C          0.18677000       0.70933000       0.29128000
    39  C          0.68677000       0.79067000       0.29128000
    40  C          0.81323000       0.29067000       0.70872000
    41  C          0.59402000       0.59403000       0.68732000
    42  C          0.90598000       0.09403000       0.31268000
    43  C          0.40598000       0.40597000       0.31268000
    44  C          0.09402000       0.90597000       0.68732000
    45  C          0.68263000       0.54235000       0.56352000
    46  C          0.81737000       0.04235000       0.43648000
    47  C          0.31737000       0.45765000       0.43648000
    48  C          0.18263000       0.95765000       0.56352000
    49  C          0.75233000       0.74305000       0.64232000
    50  C          0.74767000       0.24305000       0.35768000
    51  C          0.24767000       0.25695000       0.35768000
    52  C          0.25233000       0.75695000       0.64232000
    53  C          0.50283000       0.64204000       0.81042000
    54  C         -0.00283000       0.14204000       0.18958000
    55  C          0.49717000       0.35796000       0.18958000
    56  C          0.00283000       0.85796000       0.81042000
    57  C          0.70803000       0.65544000       0.80412000
    58  C          0.79197000       0.15544000       0.19588000
    59  C          0.29197000       0.34456000       0.19588000
    60  C          0.20803000       0.84456000       0.80412000
    61  C          0.32232000       0.19833000       0.91092000
    62  C          0.17768000       0.69833000       0.08908000
    63  C          0.67768000       0.80167000       0.08908000
    64  C          0.82232000       0.30167000       0.91092000
    65  C          0.20643000       0.19953000       0.90752000
    66  C          0.29357000       0.69953000       0.09248000
    67  C          0.79357000       0.80047000       0.09248000
    68  C          0.70643000       0.30047000       0.90752000
    69  C          0.14583000       0.12894000       0.96302000
    70  C          0.35417000       0.62894000       0.03698000
    71  C          0.85417000       0.87106000       0.03698000
    72  C          0.64583000       0.37106000       0.96302000
    73  C          0.19923000       0.05934000       0.02222000
    74  C          0.30077000       0.55934000       0.97778000
    75  C          0.80077000       0.94066000       0.97778000
    76  C          0.69923000       0.44066000       0.02222000
    77  C          0.31443000       0.06064000       0.02592000
    78  C          0.18557000       0.56064000       0.97408000
    79  C          0.68557000       0.93936000       0.97408000
    80  C          0.81443000       0.43936000       0.02592000
    81  C          0.37752000       0.12974000       0.97122000
    82  C          0.12248000       0.62974000       0.02878000
    83  C          0.62248000       0.87026000       0.02878000
    84  C          0.87752000       0.37026000       0.97122000
    85  H          0.16920000       0.25730000       0.86720000
    86  H          0.33080000       0.75730000       0.13280000
    87  H          0.83080000       0.74270000       0.13280000
    88  H          0.66920000       0.24270000       0.86720000
    89  H          0.06820000       0.12530000       0.95820000
    90  H          0.43180000       0.62530000       0.04180000
    91  H          0.93180000       0.87470000       0.04180000
    92  H          0.56820000       0.37470000       0.95820000
    93  H          0.16120000       0.01630000       0.05720000
    94  H          0.33880000       0.51630000       0.94280000
    95  H          0.83880000       0.98370000       0.94280000
    96  H          0.66120000       0.48370000       0.05720000
    97  H          0.35320000       0.02030000       0.06220000
    98  H          0.14680000       0.52030000       0.93780000
    99  H          0.64680000       0.97970000       0.93780000
   100  H          0.85320000       0.47970000       0.06220000
   101  H          0.45520000       0.12730000       0.97220000
   102  H          0.04480000       0.62730000       0.02780000
   103  H          0.54480000       0.87270000       0.02780000
   104  H          0.95520000       0.37270000       0.97220000
   105  H          0.32720000       0.13930000       0.67110000
   106  H          0.17280000       0.63930000       0.32890000
   107  H          0.67280000       0.86070000       0.32890000
   108  H          0.82720000       0.36070000       0.67110000
   109  H          0.24220000       0.19630000       0.74110000
   110  H          0.25780000       0.69630000       0.25890000
   111  H          0.75780000       0.80370000       0.25890000
   112  H          0.74220000       0.30370000       0.74110000
   113  H          0.75130000       0.54140000       0.54520000
   114  H          0.74870000       0.04140000       0.45480000
   115  H          0.24870000       0.45860000       0.45480000
   116  H          0.25130000       0.95860000       0.54520000
   117  H          0.64320000       0.59040000       0.52720000
   118  H          0.85680000       0.09040000       0.47280000
   119  H          0.35680000       0.40960000       0.47280000
   120  H          0.14320000       0.90960000       0.52720000
   121  H          0.64730000       0.45040000       0.57320000
   122  H          0.85270000       0.95040000       0.42680000
   123  H          0.35270000       0.54960000       0.42680000
   124  H          0.14730000       0.04960000       0.57320000
   125  H          0.83430000       0.70940000       0.65420000
   126  H          0.66570000       0.20940000       0.34580000
   127  H          0.16570000       0.29060000       0.34580000
   128  H          0.33430000       0.79060000       0.65420000
   129  H          0.71830000       0.81540000       0.68120000
   130  H          0.78170000       0.31540000       0.31880000
   131  H          0.28170000       0.18460000       0.31880000
   132  H          0.21830000       0.68460000       0.68120000
   133  H          0.75520000       0.77630000       0.59520000
   134  H          0.74480000       0.27630000       0.40480000
   135  H          0.24480000       0.22370000       0.40480000
   136  H          0.25520000       0.72370000       0.59520000
   137  H          0.43620000       0.65530000       0.78020000
   138  H          0.06380000       0.15530000       0.21980000
   139  H          0.56380000       0.34470000       0.21980000
   140  H          0.93620000       0.84470000       0.78020000
   141  H          0.49520000       0.55530000       0.84220000
   142  H          0.00480000       0.05530000       0.15780000
   143  H          0.50480000       0.44470000       0.15780000
   144  H         -0.00480000       0.94470000       0.84220000
   145  H          0.50520000       0.70930000       0.84420000
   146  H         -0.00520000       0.20930000       0.15580000
   147  H          0.49480000       0.29070000       0.15580000
   148  H          0.00520000       0.79070000       0.84420000
   149  H          0.71830000       0.75040000       0.81420000
   150  H          0.78170000       0.25040000       0.18580000
   151  H          0.28170000       0.24960000       0.18580000
   152  H          0.21830000       0.74960000       0.81420000
   153  H          0.75920000       0.61930000       0.77520000
   154  H          0.74080000       0.11930000       0.22480000
   155  H          0.24080000       0.38070000       0.22480000
   156  H          0.25920000       0.88070000       0.77520000
   157  H          0.70230000       0.60350000       0.85720000
   158  H          0.79770000       0.10350000       0.14280000
   159  H          0.29770000       0.39650000       0.14280000
   160  H          0.20230000       0.89650000       0.85720000
   161  C          0.50743000       0.13915000       0.48613000
   162  C         -0.00743000       0.63915000       0.51387000
   163  C          0.49257000       0.86085000       0.51387000
   164  C          0.00743000       0.36085000       0.48613000
   165  C          0.48164000       0.05046000       0.42713000
   166  C          0.01836000       0.55046000       0.57287000
   167  C          0.51836000       0.94954000       0.57287000
   168  C          0.98164000       0.44954000       0.42713000
   169  C          0.52733000       0.08915000       0.55892000
   170  C          0.97267000       0.58915000       0.44108000
   171  C          0.47267000       0.91085000       0.44108000
   172  C          0.02733000       0.41085000       0.55892000
   173  H          0.52330000       0.23540000       0.47320000
   174  H          0.97670000       0.73540000       0.52680000
   175  H          0.47670000       0.76460000       0.52680000
   176  H          0.02330000       0.26460000       0.47320000
   177  H          0.46330000       0.08250000       0.37830000
   178  H          0.03670000       0.58250000       0.62170000
   179  H          0.53670000       0.91750000       0.62170000
   180  H          0.96330000       0.41750000       0.37830000
   181  H          0.54220000       0.15030000       0.59620000
   182  H          0.95780000       0.65030000       0.40380000
   183  H          0.45780000       0.84970000       0.40380000
   184  H          0.04220000       0.34970000       0.59620000
   185  H          0.53730000       0.91750000       0.62230000
   186  H          0.96270000       0.41750000       0.37770000
   187  H          0.46270000       0.08250000       0.37770000
   188  H          0.03730000       0.58250000       0.62230000
