data_KEBHUW
_symmetry_space_group_name_H-M    'P1'
_symmetry_Int_Tables_number       1
loop_
_symmetry_equiv_pos_site_id
_symmetry_equiv_pos_as_xyz
1 x,y,z
_cell_length_a                   5.02443
_cell_length_b                   9.57286
_cell_length_c                   19.998113
_cell_angle_alpha                82.5735
_cell_angle_beta                 84.0434
_cell_angle_gamma                85.4885
loop_
_atom_site_label
_atom_site_type_symbol
_atom_site_fract_x
_atom_site_fract_y
_atom_site_fract_z
     1  S          0.47603140       0.49699600       0.29143300
     2  S          0.52396860       0.50300400       0.70856700
     3  O          0.78964000       0.34551160       0.38343800
     4  O          0.21036000       0.65448840       0.61656200
     5  O          0.95633000       0.12369150       0.37861800
     6  O          0.04367000       0.87630850       0.62138200
     7  H          0.06760000       0.14370000       0.39950000
     8  H          0.93240000       0.85630000       0.60050000
     9  O          0.77694000       0.48762000       0.15482100
    10  O          0.22306000       0.51238000       0.84517900
    11  O          0.95565000       0.87222000       0.14621130
    12  O          0.04435000       0.12778000       0.85378870
    13  C          0.25728000       0.83203000       0.02260190
    14  C          0.74272000       0.16797000       0.97739810
    15  H          0.11530000       0.90050000       0.02050000
    16  H          0.88470000       0.09950000       0.97950000
    17  C          0.41691000       0.80635000       0.96393820
    18  C          0.58309000       0.19365000       0.03606180
    19  H          0.38250000       0.85750000       0.92260000
    20  H          0.61750000       0.14250000       0.07740000
    21  C          0.62579000       0.70495000       0.96715830
    22  C          0.37421000       0.29505000       0.03284170
    23  H          0.73350000       0.68820000       0.92790000
    24  H          0.26650000       0.31180000       0.07210000
    25  C          0.67657000       0.62784000       0.02796150
    26  C          0.32343000       0.37216000       0.97203850
    27  H          0.81850000       0.55930000       0.02950000
    28  H          0.18150000       0.44070000       0.97050000
    29  C          0.51835000       0.65113000       0.08706120
    30  C          0.48165000       0.34887000       0.91293880
    31  C          0.30866000       0.75612000       0.08428120
    32  C          0.69134000       0.24388000       0.91571880
    33  C          0.14046000       0.78132000       0.14684140
    34  C          0.85954000       0.21868000       0.85315860
    35  C          0.19255000       0.69492000       0.21184120
    36  C          0.80745000       0.30508000       0.78815880
    37  C          0.39235000       0.59132000       0.21393110
    38  C          0.60765000       0.40868000       0.78606890
    39  C          0.57875000       0.56852000       0.15205110
    40  C          0.42125000       0.43148000       0.84794890
    41  C          0.00996000       0.72613000       0.27298150
    42  C         -0.00996000       0.27387000       0.72701850
    43  H          0.07960000       0.79900000       0.29350000
    44  H          0.92040000       0.20100000       0.70650000
    45  H         -0.00160000       0.64230000       0.30490000
    46  H          0.00160000       0.35770000       0.69510000
    47  H          0.83460000       0.75710000       0.25970000
    48  H          0.16540000       0.24290000       0.74030000
    49  C          0.46494000       0.32042000       0.27409900
    50  C          0.53506000       0.67958000       0.72590100
    51  C          0.28855000       0.28932000       0.22978100
    52  C          0.71145000       0.71068000       0.77021900
    53  H          0.17350000       0.36060000       0.21050000
    54  H          0.82650000       0.63940000       0.78950000
    55  C          0.28245000       0.15442000       0.21416110
    56  C          0.71755000       0.84558000       0.78583890
    57  H          0.16410000       0.13490000       0.18430000
    58  H          0.83590000       0.86510000       0.81570000
    59  C          0.45115000       0.04712000       0.24263120
    60  C          0.54885000       0.95288000       0.75736880
    61  H          0.45280000       0.95650000       0.23040000
    62  H          0.54720000       0.04350000       0.76960000
    63  C          0.61614000       0.07532000       0.28907110
    64  C          0.38386000       0.92468000       0.71092890
    65  H          0.72400000       0.00190000       0.30940000
    66  H          0.27600000      -0.00190000       0.69060000
    67  C          0.62654000       0.21073190       0.30652900
    68  C          0.37346000       0.78926810       0.69347100
    69  C          0.79784000       0.23622000       0.35935100
    70  C          0.20216000       0.76378000       0.64064900
    71  C          0.60555000       0.12242000       0.55741120
    72  C          0.39445000       0.87758000       0.44258880
    73  H          0.73920000       0.06530000       0.57830000
    74  H          0.26080000       0.93470000       0.42170000
    75  N          0.27994000       0.15487170       0.47814800
    76  N          0.72006000       0.84512830       0.52185200
    77  C          0.47024000       0.07222000       0.50947900
    78  C          0.52976000       0.92778000       0.49052100
    79  C          0.22455000       0.28622000       0.49527120
    80  C          0.77545000       0.71378000       0.50472880
    81  H          0.09430000       0.34360000       0.47320000
    82  H          0.90570000       0.65640000       0.52680000
    83  C          0.34785000       0.34072000       0.54317120
    84  C          0.65215000       0.65928000       0.45682880
    85  H          0.30060000       0.43150000       0.55400000
    86  H          0.69940000       0.56850000       0.44600000
    87  C          0.54136000       0.25762000       0.57425120
    88  C          0.45864000       0.74238000       0.42574880
    89  H          0.63060000       0.29130000       0.60670000
    90  H          0.36940000       0.70870000       0.39330000
