data_KEBLAG
_symmetry_space_group_name_H-M    'P1'
_symmetry_Int_Tables_number       1
loop_
_symmetry_equiv_pos_site_id
_symmetry_equiv_pos_as_xyz
1 x,y,z
_cell_length_a                   8.03053
_cell_length_b                   8.09784
_cell_length_c                   14.95199
_cell_angle_alpha                93.6773
_cell_angle_beta                 91.1053
_cell_angle_gamma                117.7642
loop_
_atom_site_label
_atom_site_type_symbol
_atom_site_fract_x
_atom_site_fract_y
_atom_site_fract_z
     1  C          0.00106190       0.00242000       0.29962100
     2  C         -0.00106190      -0.00242000       0.70037900
     3  C          0.90108000       0.07322000       0.34912100
     4  C          0.09892000       0.92678000       0.65087900
     5  H          0.94640000       0.12860000       0.40690000
     6  H          0.05360000       0.87140000       0.59310000
     7  C          0.93088000       0.91862000       0.21347100
     8  C          0.06912000       0.08138000       0.78652900
     9  C          0.66668000       0.97873000       0.22853110
    10  C          0.33332000       0.02127000       0.77146890
    11  H          0.55530000       0.97080000       0.20440000
    12  H          0.44470000       0.02920000       0.79560000
    13  C          0.73468000       0.06322000       0.31440100
    14  C          0.26532000       0.93678000       0.68559900
    15  C          0.13449190       0.63272000       0.11032100
    16  C          0.86550810       0.36728000       0.88967900
    17  C          0.20605190       0.78282000       0.05831100
    18  C          0.79394810       0.21718000       0.94168900
    19  C          0.01872000       0.66532000       0.17858100
    20  C         -0.01872000       0.33468000       0.82141900
    21  C          0.76418000       0.90682000       0.17926100
    22  C          0.23582000       0.09318000       0.82073900
    23  H          0.71730000       0.84930000       0.12200000
    24  H          0.28270000       0.15070000       0.87800000
    25  C          0.18332000       0.02022000       0.34114110
    26  C          0.81668000      -0.02022000       0.65885890
    27  C          0.14142000       0.91902000       0.09235100
    28  C          0.85858000       0.08098000       0.90764900
    29  C          0.31132000       0.78712000       0.98588890
    30  C          0.68868000       0.21288000       0.01411110
    31  H          0.35760000       0.88740000       0.95020000
    32  H          0.64240000       0.11260000       0.04980000
    33  C          0.27492000       0.48602000       0.02060120
    34  C          0.72508000       0.51398000       0.97939880
    35  H          0.30030000       0.38650000       0.00730000
    36  H          0.69970000       0.61350000      -0.00730000
    37  C          0.16652000       0.48062000       0.09271110
    38  C          0.83348000       0.51938000       0.90728890
    39  H          0.11770000       0.37900000       0.12760000
    40  H          0.88230000       0.62100000       0.87240000
    41  C          0.34522000       0.63503000       0.96858880
    42  C          0.65478000       0.36497000       0.03141120
    43  H          0.41710000       0.63420000       0.92070000
    44  H          0.58290000       0.36580000       0.07930000
    45  O          0.64206840       0.13137180       0.36712800
    46  O          0.35793160       0.86862820       0.63287200
    47  H          0.53830000       0.10190000       0.34310000
    48  H          0.46170000       0.89810000       0.65690000
    49  O          0.31373160       0.04632000       0.29124800
    50  O          0.68626840       0.95368000       0.70875200
    51  O          0.93582820       0.56981180       0.23767800
    52  O          0.06417180       0.43018820       0.76232200
    53  O          0.18003190       0.07103170       0.06840900
    54  O          0.81996810       0.92896830       0.93159100
    55  N          0.02215170       0.83400170       0.16079800
    56  N         -0.02215170       0.16599830       0.83920200
    57  O          0.18883180       0.00942000       0.42396800
    58  O          0.81116820      -0.00942000       0.57603200
    59  H          0.28130000       0.10170000       0.44740000
    60  H          0.71870000       0.89830000       0.55260000
    61  N          0.56222000       0.74452000       0.45713100
    62  N          0.43778000       0.25548000       0.54286900
    63  C          0.38713000       0.70463000       0.43357140
    64  C          0.61287000       0.29537000       0.56642860
    65  H          0.32880000       0.76540000       0.46430000
    66  H          0.67120000       0.23460000       0.53570000
    67  C          0.64973000       0.66163000       0.41439160
    68  C          0.35027000       0.33837000       0.58560840
    69  H          0.77360000       0.69440000       0.43210000
    70  H          0.22640000       0.30560000       0.56790000
    71  C          0.38054000       0.48563000       0.31979150
    72  C          0.61946000       0.51437000       0.68020850
    73  H          0.31690000       0.39570000       0.27250000
    74  H          0.68310000       0.60430000       0.72750000
    75  C          0.56074000       0.52883000       0.34480160
    76  C          0.43926000       0.47117000       0.65519840
    77  H          0.62160000       0.46950000       0.31530000
    78  H          0.37840000       0.53050000       0.68470000
    79  C          0.29203000       0.57353000       0.36372150
    80  C          0.70797000       0.42647000       0.63627850
    81  H          0.16890000       0.54440000       0.34640000
    82  H          0.83110000       0.45560000       0.65360000
