data_KECHEJ
_symmetry_space_group_name_H-M    'P1'
_symmetry_Int_Tables_number       1
loop_
_symmetry_equiv_pos_site_id
_symmetry_equiv_pos_as_xyz
1 x,y,z
_cell_length_a                   9.96242
_cell_length_b                   15.91162
_cell_length_c                   13.05132
_cell_angle_alpha                90.0
_cell_angle_beta                 108.9495
_cell_angle_gamma                90.0
loop_
_atom_site_label
_atom_site_type_symbol
_atom_site_fract_x
_atom_site_fract_y
_atom_site_fract_z
     1  S          0.41901500       0.66297300       0.39689400
     2  S          0.08098500       0.16297300       0.10310600
     3  S          0.58098500       0.33702700       0.60310600
     4  S          0.91901500       0.83702700       0.89689400
     5  O          0.80481140       0.52649800       0.63430100
     6  O          0.69518860       0.02649800       0.86569900
     7  O          0.19518860       0.47350200       0.36569900
     8  O          0.30481140       0.97350200       0.13430100
     9  N          0.45225160       0.54537100       0.25623120
    10  N          0.04774840       0.04537100       0.24376880
    11  N          0.54774840       0.45462900       0.74376880
    12  N          0.95225160       0.95462900       0.75623120
    13  H          0.49720000       0.50521400       0.24991700
    14  H          0.00280000       0.00521400       0.25008300
    15  H          0.50280000       0.49478600       0.75008300
    16  H         -0.00280000      -0.00521400       0.74991700
    17  N          0.60251150       0.54079900       0.43011130
    18  N          0.89748850       0.04079900       0.06988870
    19  N          0.39748850       0.45920100       0.56988870
    20  N          0.10251150       0.95920100       0.93011130
    21  H          0.63320000       0.56171400       0.49781900
    22  H          0.86680000       0.06171400       0.00218100
    23  H          0.36680000       0.43828600       0.50218100
    24  H          0.13320000       0.93828600      -0.00218100
    25  N          0.67713150       0.48205900       0.39677120
    26  N          0.82286850       0.98205900       0.10322880
    27  N          0.32286850       0.51794100       0.60322880
    28  N          0.17713150       0.01794100       0.89677120
    29  C          0.34123180       0.56951110       0.16045150
    30  C          0.15876820       0.06951110       0.33954850
    31  C          0.65876820       0.43048890       0.83954850
    32  C          0.84123180       0.93048890       0.66045150
    33  C          0.20952000       0.59770140       0.16077170
    34  C          0.29048000       0.09770140       0.33922830
    35  C          0.79048000       0.40229860       0.83922830
    36  C          0.70952000       0.90229860       0.66077170
    37  H          0.19098400       0.60536700       0.22712900
    38  H          0.30901600       0.10536700       0.27287100
    39  H          0.80901600       0.39463300       0.77287100
    40  H          0.69098400       0.89463300       0.72712900
    41  C          0.10472000       0.61458160       0.06222190
    42  C          0.39528000       0.11458160       0.43777810
    43  C          0.89528000       0.38541840       0.93777810
    44  C          0.60472000       0.88541840       0.56222190
    45  H          0.01478700       0.63462100       0.06192000
    46  H          0.48521300       0.13462100       0.43808000
    47  H         -0.01478700       0.36537900       0.93808000
    48  H          0.51478700       0.86537900       0.56192000
    49  C          0.12942000       0.60269140       0.96495830
    50  C          0.37058000       0.10269140       0.53504170
    51  C          0.87058000       0.39730860       0.03504170
    52  C          0.62942000       0.89730860       0.46495830
    53  H          0.05630700       0.61326700       0.89838300
    54  H          0.44369300       0.11326700       0.60161700
    55  H          0.94369300       0.38673300       0.10161700
    56  H          0.55630700       0.88673300       0.39838300
    57  C          0.26092000       0.57536120       0.96531840
    58  C          0.23908000       0.07536120       0.53468160
    59  C          0.73908000       0.42463880       0.03468160
    60  C          0.76092000       0.92463880       0.46531840
    61  H          0.27896200       0.56771900       0.89879400
    62  H          0.22103800       0.06771900       0.60120600
    63  H          0.72103800       0.43228100       0.10120600
    64  H          0.77896200       0.93228100       0.39879400
    65  C          0.36692000       0.55899120       0.06270150
    66  C          0.13308000       0.05899120       0.43729850
    67  C          0.63308000       0.44100880       0.93729850
    68  C          0.86692000       0.94100880       0.56270150
    69  H          0.45750800       0.54049800       0.06255400
    70  H          0.04249200       0.04049800       0.43744600
    71  H          0.54249200       0.45950200       0.93744600
    72  H          0.95750800       0.95950200       0.56255400
    73  C          0.48885180       0.57938110       0.35487150
    74  C          0.01114820       0.07938110       0.14512850
    75  C          0.51114820       0.42061890       0.64512850
    76  C         -0.01114820       0.92061890       0.85487150
    77  C          0.79056170       0.45263100       0.46748140
    78  C          0.70943830       0.95263100       0.03251860
    79  C          0.20943830       0.54736900       0.53251860
    80  C          0.29056170       0.04736900       0.96748140
    81  C          0.85460180       0.47555110       0.58632140
    82  C          0.64539820       0.97555110       0.91367860
    83  C          0.14539820       0.52444890       0.41367860
    84  C          0.35460180       0.02444890       0.08632140
    85  C         -0.01343820       0.42537110       0.62729140
    86  C          0.51343820       0.92537110       0.87270860
    87  C          0.01343820       0.57462890       0.37270860
    88  C          0.48656180       0.07462890       0.12729140
    89  C          0.09104190       0.41966120       0.72673150
    90  C          0.40895810       0.91966120       0.77326850
    91  C          0.90895810       0.58033880       0.27326850
    92  C          0.59104190       0.08033880       0.22673150
    93  H          0.08500700       0.45085100       0.78714400
    94  H          0.41499300       0.95085100       0.71285600
    95  H          0.91499300       0.54914900       0.21285600
    96  H          0.58500700       0.04914900       0.28714400
    97  C          0.20752000       0.36595130       0.73611160
    98  C          0.29248000       0.86595130       0.76388840
    99  C          0.79248000       0.63404870       0.26388840
   100  C          0.70752000       0.13404870       0.23611160
   101  H          0.27992700       0.36117200       0.80437900
   102  H          0.22007300       0.86117200       0.69562100
   103  H          0.72007300       0.63882800       0.19562100
   104  H          0.77992700       0.13882800       0.30437900
   105  C          0.21999190       0.32021120       0.64981150
   106  C          0.28000810       0.82021120       0.85018850
   107  C          0.78000810       0.67978880       0.35018850
   108  C          0.71999190       0.17978880       0.14981150
   109  H          0.30002000       0.28480300       0.65984200
   110  H          0.19998000       0.78480300       0.84015800
   111  H          0.69998000       0.71519700       0.34015800
   112  H          0.80002000       0.21519700       0.15984200
   113  C          0.11479180       0.32545110       0.54639150
   114  C          0.38520820       0.82545110       0.95360850
   115  C          0.88520820       0.67454890       0.45360850
   116  C          0.61479180       0.17454890       0.04639150
   117  C          0.11377190       0.28459110       0.44953150
   118  C          0.38622810       0.78459110       0.05046850
   119  C          0.88622810       0.71540890       0.55046850
   120  C          0.61377190       0.21540890       0.94953150
   121  H          0.19002900       0.24874300       0.44953400
   122  H          0.30997100       0.74874300       0.05046600
   123  H          0.80997100       0.75125700       0.55046600
   124  H          0.69002900       0.25125700       0.94953400
   125  C          0.00188190       0.29699110       0.35536160
   126  C          0.49811810       0.79699110       0.14463840
   127  C         -0.00188190       0.70300890       0.64463840
   128  C          0.50188190       0.20300890       0.85536160
   129  H          0.00306000       0.26885100       0.29146100
   130  H          0.49694000       0.76885100       0.20853900
   131  H         -0.00306000       0.73114900       0.70853900
   132  H          0.50306000       0.23114900       0.79146100
   133  C          0.88506180       0.34995110       0.34974140
   134  C          0.61493820       0.84995110       0.15025860
   135  C          0.11493820       0.65004890       0.65025860
   136  C          0.38506180       0.15004890       0.84974140
   137  H          0.80889800       0.35666900       0.28387900
   138  H          0.69110200       0.85666900       0.21612100
   139  H          0.19110200       0.64333100       0.71612100
   140  H          0.30889800       0.14333100       0.78387900
   141  C          0.88525170       0.39124100       0.44232140
   142  C          0.61474830       0.89124100       0.05767860
   143  C          0.11474830       0.60875900       0.55767860
   144  C          0.38525170       0.10875900       0.94232140
   145  C         -0.00038830       0.37864100       0.53907140
   146  C          0.50038830       0.87864100       0.96092860
   147  C          0.00038830       0.62135900       0.46092860
   148  C          0.49961170       0.12135900       0.03907140
   149  S          0.44186500       0.31288300       0.17477400
   150  S          0.05813500       0.81288300       0.32522600
   151  S          0.55813500       0.68711700       0.82522600
   152  S          0.94186500       0.18711700       0.67477400
   153  O          0.53770140       0.38741900       0.18320120
   154  O          0.96229860       0.88741900       0.31679880
   155  O          0.46229860       0.61258100       0.81679880
   156  O          0.03770140       0.11258100       0.68320120
   157  C          0.33733000       0.33355170       0.25882000
   158  C          0.16267000       0.83355170       0.24118000
   159  C          0.66267000       0.66644830       0.74118000
   160  C          0.83733000       0.16644830       0.75882000
   161  H          0.28844200       0.38747400       0.23825200
   162  H          0.21155800       0.88747400       0.26174800
   163  H          0.71155800       0.61252600       0.76174800
   164  H          0.78844200       0.11252600       0.73825200
   165  H          0.39857800       0.33592100       0.33456300
   166  H          0.10142200       0.83592100       0.16543700
   167  H          0.60142200       0.66407900       0.66543700
   168  H          0.89857800       0.16407900       0.83456300
   169  H          0.26707200       0.28867800       0.24996800
   170  H          0.23292800       0.78867800       0.25003200
   171  H          0.73292800       0.71132200       0.75003200
   172  H          0.76707200       0.21132200       0.74996800
   173  C          0.31223000       0.32103170       0.04642000
   174  C          0.18777000       0.82103170       0.45358000
   175  C          0.68777000       0.67896830       0.95358000
   176  C          0.81223000       0.17896830       0.54642000
   177  H          0.35780100       0.31838100      -0.00967800
   178  H          0.14219900       0.81838100       0.50967800
   179  H          0.64219900       0.68161900       0.00967800
   180  H          0.85780100       0.18161900       0.49032200
   181  H          0.26194800       0.37465600       0.04099000
   182  H          0.23805200       0.87465600       0.45901000
   183  H          0.73805200       0.62534400       0.95901000
   184  H          0.76194800       0.12534400       0.54099000
   185  H          0.24446200       0.27461400       0.03634100
   186  H          0.25553800       0.77461400       0.46365900
   187  H          0.75553800       0.72538600       0.96365900
   188  H          0.74446200       0.22538600       0.53634100
