data_KECJAG
_symmetry_space_group_name_H-M    'P1'
_symmetry_Int_Tables_number       1
loop_
_symmetry_equiv_pos_site_id
_symmetry_equiv_pos_as_xyz
1 x,y,z
_cell_length_a                   6.945513
_cell_length_b                   8.199314
_cell_length_c                   13.8252
_cell_angle_alpha                97.8867
_cell_angle_beta                 97.9398
_cell_angle_gamma                109.4798
loop_
_atom_site_label
_atom_site_type_symbol
_atom_site_fract_x
_atom_site_fract_y
_atom_site_fract_z
     1  C          0.71153000       0.60503000       0.78330150
     2  C          0.28847000       0.39497000       0.21669850
     3  C          0.71703000       0.65863000       0.68396160
     4  C          0.28297000       0.34137000       0.31603840
     5  C          0.68014000       0.80273000       0.65564170
     6  C          0.31986000       0.19727000       0.34435830
     7  H          0.64630000       0.88210000       0.70100000
     8  H          0.35370000       0.11790000       0.29900000
     9  C          0.69404000       0.82823000       0.55898170
    10  C          0.30596000       0.17177000       0.44101830
    11  H          0.66930000       0.92630000       0.53810000
    12  H          0.33070000       0.07370000       0.46190000
    13  C          0.74374000       0.71133000       0.49226170
    14  C          0.25626000       0.28867000       0.50773830
    15  H          0.75210000       0.73150000       0.42670000
    16  H          0.24790000       0.26850000       0.57330000
    17  C          0.78103000       0.56633000       0.51976160
    18  C          0.21897000       0.43367000       0.48023840
    19  H          0.81410000       0.48620000       0.47460000
    20  H          0.18590000       0.51380000       0.52540000
    21  C          0.76753000       0.54443000       0.61662150
    22  C          0.23247000       0.45557000       0.38337850
    23  N          0.75753000       0.45402000       0.78128130
    24  N          0.24247000       0.54598000       0.21871870
    25  O          0.66523000       0.20732000       0.63195120
    26  O          0.33477000       0.79268000       0.36804880
    27  O          0.02853000       0.40042000       0.68874120
    28  O         -0.02853000       0.59958000       0.31125880
    29  O          0.67183000       0.68292000       0.85466120
    30  O          0.32817000       0.31708000       0.14533880
    31  S          0.81267900       0.38012700       0.67614400
    32  S          0.18732100       0.61987300       0.32385600
    33  Br         0.76410300       0.32713300       0.90079200
    34  Br         0.23589700       0.67286700       0.09920800
    35  C          0.76593000       0.02973000       0.00370170
    36  C          0.23407000       0.97027000      -0.00370170
    37  H          0.76690000       0.97620000       0.93840000
    38  H          0.23310000       0.02380000       0.06160000
    39  C          0.76584000       0.93707000       0.07906180
    40  C          0.23416000       0.06293000       0.92093820
    41  H          0.76570000       0.82030000       0.06560000
    42  H          0.23430000       0.17970000       0.93440000
    43  C          0.76593000       0.01453000       0.17556170
    44  C          0.23407000      -0.01453000       0.82443830
    45  C          0.76174000       0.18363000       0.19020160
    46  C          0.23826000       0.81637000       0.80979840
    47  H          0.76010000       0.23980000       0.25480000
    48  H          0.23990000       0.76020000       0.74520000
    49  C          0.75993000       0.27123000       0.11202160
    50  C          0.24007000       0.72877000       0.88797840
    51  H          0.75530000       0.38670000       0.12300000
    52  H          0.24470000       0.61330000       0.87700000
    53  C          0.76884000       0.91776000       0.25992000
    54  C          0.23116000       0.08224000       0.74008000
    55  H          0.84070000       0.00270000       0.32220000
    56  H          0.15930000      -0.00270000       0.67780000
    57  H          0.84210000       0.83590000       0.24760000
    58  H          0.15790000       0.16410000       0.75240000
    59  H          0.62550000       0.85170000       0.26520000
    60  H          0.37450000       0.14830000       0.73480000
    61  N          0.76463000       0.19462000       0.02026130
    62  N          0.23537000       0.80538000       0.97973870
