data_KEFBED
_symmetry_space_group_name_H-M    'P1'
_symmetry_Int_Tables_number       1
loop_
_symmetry_equiv_pos_site_id
_symmetry_equiv_pos_as_xyz
1 x,y,z
_cell_length_a                   9.11728
_cell_length_b                   9.29698
_cell_length_c                   10.64309
_cell_angle_alpha                90.0
_cell_angle_beta                 92.6942
_cell_angle_gamma                90.0
loop_
_atom_site_label
_atom_site_type_symbol
_atom_site_fract_x
_atom_site_fract_y
_atom_site_fract_z
     1  N          0.20408800       0.47883900       0.10927700
     2  N          0.29591200       0.97883900       0.39072300
     3  N          0.79591200       0.52116100       0.89072300
     4  N          0.70408800       0.02116100       0.60927700
     5  C          0.07057900       0.44681900       0.15012800
     6  C          0.42942100       0.94681900       0.34987200
     7  C          0.92942100       0.55318100       0.84987200
     8  C          0.57057900       0.05318100       0.65012800
     9  N          0.04706800       0.29944800       0.16316700
    10  N          0.45293200       0.79944800       0.33683300
    11  N          0.95293200       0.70055200       0.83683300
    12  N          0.54706800       0.20055200       0.66316700
    13  H          0.11601500       0.24441600       0.13851100
    14  H          0.38398500       0.74441600       0.36148900
    15  H          0.88398500       0.75558400       0.86148900
    16  H          0.61601500       0.25558400       0.63851100
    17  C          0.96834100       0.55342100       0.17581800
    18  C          0.53165900       0.05342100       0.32418200
    19  C          0.03165900       0.44657900       0.82418200
    20  C          0.46834100       0.94657900       0.67581800
    21  H          0.87410000       0.52870000       0.20360000
    22  H          0.62590000       0.02870000       0.29640000
    23  H          0.12590000       0.47130000       0.79640000
    24  H          0.37410000       0.97130000       0.70360000
    25  C          0.00752100       0.69589100       0.15987900
    26  C          0.49247900       0.19589100       0.34012100
    27  C         -0.00752100       0.30410900       0.84012100
    28  C          0.50752100       0.80410900       0.65987900
    29  H          0.94000000       0.77040000       0.17710000
    30  H          0.56000000       0.27040000       0.32290000
    31  H          0.06000000       0.22960000       0.82290000
    32  H          0.44000000       0.72960000       0.67710000
    33  C          0.14615100       0.72993100       0.11844900
    34  C          0.35384900       0.22993100       0.38155100
    35  C          0.85384900       0.27006900       0.88155100
    36  C          0.64615100       0.77006900       0.61844900
    37  H          0.17530000       0.82710000       0.10780000
    38  H          0.32470000       0.32710000       0.39220000
    39  H          0.82470000       0.17290000       0.89220000
    40  H          0.67530000       0.67290000       0.60780000
    41  C          0.23978100       0.61747100       0.09339900
    42  C          0.26021900       0.11747100       0.40660100
    43  C          0.76021900       0.38252900       0.90660100
    44  C          0.73978100       0.88252900       0.59339900
    45  H          0.33380000       0.63940000       0.06360000
    46  H          0.16620000       0.13940000       0.43640000
    47  H          0.66620000       0.36060000       0.93640000
    48  H          0.83380000       0.86060000       0.56360000
    49  C          0.92243900       0.23093100       0.19938900
    50  C          0.57756100       0.73093100       0.30061100
    51  C          0.07756100       0.76906900       0.80061100
    52  C          0.42243900       0.26906900       0.69938900
    53  O          0.81252200       0.29350800       0.23167800
    54  O          0.68747800       0.79350800       0.26832200
    55  O          0.18747800       0.70649200       0.76832200
    56  O          0.31252200       0.20649200       0.73167800
    57  C          0.93290900       0.06897110       0.19680100
    58  C          0.56709100       0.56897110       0.30319900
    59  C          0.06709100       0.93102890       0.80319900
    60  C          0.43290900       0.43102890       0.69680100
    61  H          0.91400000       0.03050000       0.28020000
    62  H          0.58600000       0.53050000       0.21980000
    63  H          0.08600000       0.96950000       0.71980000
    64  H          0.41400000       0.46950000       0.78020000
    65  H          0.03150000       0.04050000       0.17350000
    66  H          0.46850000       0.54050000       0.32650000
    67  H          0.96850000       0.95950000       0.82650000
    68  H          0.53150000       0.45950000       0.67350000
    69  H          0.86000000       0.03070000       0.13500000
    70  H          0.64000000       0.53070000       0.36500000
    71  H          0.14000000       0.96930000       0.86500000
    72  H          0.36000000       0.46930000       0.63500000
    73  C          0.38670900       0.16970110       0.03516800
    74  C          0.11329100       0.66970110       0.46483200
    75  C          0.61329100       0.83029890       0.96483200
    76  C          0.88670900       0.33029890       0.53516800
    77  O          0.41473800       0.30832800       0.03437700
    78  O          0.08526200       0.80832800       0.46562300
    79  O          0.58526200       0.69167200       0.96562300
    80  O          0.91473800       0.19167200       0.53437700
    81  H          0.33601700       0.36291600       0.05981400
    82  H          0.16398300       0.86291600       0.44018600
    83  H          0.66398300       0.63708400       0.94018600
    84  H          0.83601700       0.13708400       0.55981400
    85  O          0.26939700       0.11793700       0.06440700
    86  O          0.23060300       0.61793700       0.43559300
    87  O          0.73060300       0.88206300       0.93559300
    88  O          0.76939700       0.38206300       0.56440700
    89  C          0.51524900       0.08013900      -0.00181800
    90  C         -0.01524900       0.58013900       0.50181800
    91  C          0.48475100       0.91986100       0.00181800
    92  C          0.01524900       0.41986100       0.49818200
    93  H          0.60080000       0.10190000       0.05580000
    94  H          0.89920000       0.60190000       0.44420000
    95  H          0.39920000       0.89810000       0.94420000
    96  H          0.10080000       0.39810000       0.55580000
    97  H          0.54130000       0.10720000       0.91210000
    98  H          0.95870000       0.60720000       0.58790000
    99  H          0.45870000       0.89280000       0.08790000
   100  H          0.04130000       0.39280000       0.41210000
