data_KEFCEE
_symmetry_space_group_name_H-M    'P1'
_symmetry_Int_Tables_number       1
loop_
_symmetry_equiv_pos_site_id
_symmetry_equiv_pos_as_xyz
1 x,y,z
_cell_length_a                   5.37674
_cell_length_b                   6.54164
_cell_length_c                   17.066212
_cell_angle_alpha                92.80901
_cell_angle_beta                 90.24701
_cell_angle_gamma                101.31401
loop_
_atom_site_label
_atom_site_type_symbol
_atom_site_fract_x
_atom_site_fract_y
_atom_site_fract_z
     1  N          0.39794170       0.67116140       0.27381500
     2  N          0.60205830       0.32883860       0.72618500
     3  C          0.32841190       0.57217160       0.33986600
     4  C          0.67158810       0.42782840       0.66013400
     5  N          0.46038170       0.41424140       0.35354500
     6  N          0.53961830       0.58575860       0.64645500
     7  H          0.57430000       0.39920000       0.31849000
     8  H          0.42570000       0.60080000       0.68151000
     9  C          0.14132000       0.62668160       0.38883600
    10  C          0.85868000       0.37331840       0.61116400
    11  H          0.09470000       0.55470000       0.43520000
    12  H          0.90530000       0.44530000       0.56480000
    13  C          0.02592000       0.78784170       0.36814600
    14  C         -0.02592000       0.21215830       0.63185400
    15  H          0.89800000       0.82740000       0.40040000
    16  H          0.10200000       0.17260000       0.59960000
    17  C          0.09712000       0.89230170       0.30004600
    18  C          0.90288000       0.10769830       0.69995400
    19  H          0.02020000       0.00360000       0.28500000
    20  H         -0.02020000      -0.00360000       0.71500000
    21  C          0.28382000       0.82783170       0.25509600
    22  C          0.71618000       0.17216830       0.74490400
    23  H          0.33390000       0.89800000       0.20860000
    24  H          0.66610000       0.10200000       0.79140000
    25  C          0.44402000       0.28941160       0.41642600
    26  C          0.55598000       0.71058840       0.58357400
    27  O          0.29442160       0.29321130       0.46972500
    28  O          0.70557840       0.70678870       0.53027500
    29  C          0.63122000       0.14506170       0.41313600
    30  C          0.36878000       0.85493830       0.58686400
    31  H          0.76790000       0.19530000       0.45160000
    32  H          0.23210000       0.80470000       0.54840000
    33  H          0.70260000       0.14200000       0.36050000
    34  H          0.29740000       0.85800000       0.63950000
    35  H          0.54460000       0.00410000       0.42520000
    36  H          0.45540000      -0.00410000       0.57480000
    37  C          0.83278190       0.43802160       0.17258600
    38  C          0.16721810       0.56197840       0.82741400
    39  O          0.71472150       0.59424120       0.16235500
    40  O          0.28527850       0.40575880       0.83764500
    41  H          0.61430000       0.61120000       0.20469000
    42  H          0.38570000       0.38880000       0.79531000
    43  O          0.80017160       0.32836130       0.22874500
    44  O          0.19982840       0.67163870       0.77125500
    45  C          0.00912000       0.40927160       0.10637600
    46  C         -0.00912000       0.59072840       0.89362400
    47  H          0.14020000       0.53830000       0.10420000
    48  H          0.85980000       0.46170000       0.89580000
    49  H          0.91090000       0.39230000       0.05650000
    50  H          0.08910000       0.60770000       0.94350000
    51  C          0.14172000       0.22519160       0.11156600
    52  C          0.85828000       0.77480840       0.88843400
    53  H          0.01370000       0.09600000       0.11770000
    54  H         -0.01370000       0.90400000       0.88230000
    55  H          0.25550000       0.24710000       0.15820000
    56  H          0.74450000       0.75290000       0.84180000
    57  C          0.29582000       0.20025160       0.03807600
    58  C          0.70418000       0.79974840       0.96192400
    59  H          0.42550000       0.32910000       0.03320000
    60  H          0.57450000       0.67090000       0.96680000
    61  H          0.18160000       0.18480000       0.99160000
    62  H          0.81840000       0.81520000       0.00840000
    63  C          0.42810190       0.01381160       0.03770600
    64  C          0.57189810      -0.01381160       0.96229400
    65  H          0.54840000       0.03210000       0.08270000
    66  H          0.45160000       0.96790000       0.91730000
    67  H          0.29960000       0.88540000       0.04480000
    68  H          0.70040000       0.11460000       0.95520000
