data_KEFGUX20
_symmetry_space_group_name_H-M    'P1'
_symmetry_Int_Tables_number       1
loop_
_symmetry_equiv_pos_site_id
_symmetry_equiv_pos_as_xyz
1 x,y,z
_cell_length_a                   11.9963
_cell_length_b                   13.6473
_cell_length_c                   16.7935
_cell_angle_alpha                119.762
_cell_angle_beta                 91.072
_cell_angle_gamma                71.742
loop_
_atom_site_label
_atom_site_type_symbol
_atom_site_fract_x
_atom_site_fract_y
_atom_site_fract_z
     1  C          0.03068000       0.22838000       0.04376000
     2  C          0.96932000       0.77162000       0.95624000
     3  C          0.06148000       0.30918000       0.12436000
     4  C          0.93852000       0.69082000       0.87564000
     5  C          0.15928000       0.26649000       0.15846000
     6  C          0.84072000       0.73351000       0.84154000
     7  C          0.22548000       0.14478000       0.11126000
     8  C          0.77452000       0.85522000       0.88874000
     9  C          0.26648000       0.93312000       0.98223000
    10  C          0.73352000       0.06688000       0.01777000
    11  C          0.22918000       0.85491000       0.91143000
    12  C          0.77082000       0.14509000       0.08857000
    13  C          0.12418000       0.89041000       0.87353000
    14  C          0.87582000       0.10959000       0.12647000
    15  C          0.05758000       0.01578000       0.91274000
    16  C          0.94242000      -0.01578000       0.08726000
    17  C          0.09328000       0.10358000      -0.00506000
    18  C          0.90672000       0.89642000       0.00506000
    19  C          0.19438000       0.06198000       0.03036000
    20  C          0.80562000       0.93802000       0.96964000
    21  C          0.89432000       0.49668000       0.23896000
    22  C          0.10568000       0.50332000       0.76104000
    23  C          0.98982000       0.44228000       0.16946000
    24  C          0.01018000       0.55772000       0.83054000
    25  C          0.01978000       0.51129000       0.13796000
    26  C          0.98022000       0.48871000       0.86204000
    27  C          0.95321000       0.62958000       0.17816000
    28  C          0.04679000       0.37042000       0.82184000
    29  C          0.77852000       0.81348000       0.28286000
    30  C          0.22148000       0.18652000       0.71714000
    31  C          0.68502000       0.86268000       0.34996000
    32  C          0.31498000       0.13732000       0.65004000
    33  C          0.65232000       0.80208000       0.39046000
    34  C          0.34768000       0.19792000       0.60954000
    35  C          0.72512000       0.68128000       0.35906000
    36  C          0.27488000       0.31872000       0.64094000
    37  C          0.82622000       0.62048000       0.28396000
    38  C          0.17378000       0.37952000       0.71604000
    39  C          0.85243000       0.68777000       0.24856000
    40  C          0.14757000       0.31223000       0.75144000
    41  C          0.19541000       0.35221000       0.24497000
    42  C          0.80459000       0.64779000       0.75503000
    43  C          0.96671000       0.04829000       0.86843000
    44  C          0.03329000       0.95171000       0.13157000
    45  C          0.38299000       0.88831000       0.01237000
    46  C          0.61701000       0.11169000       0.98763000
    47  C          0.48969000       0.83138900       0.93509000
    48  C          0.51031000       0.16861100       0.06491000
    49  C          0.37961000       0.80438800       0.04638000
    50  C          0.62039000       0.19561200       0.95362000
    51  C          0.12749000       0.45319000       0.06257000
    52  C          0.87251000       0.54681000       0.93743000
    53  C          0.69822000       0.63147000       0.40886000
    54  C          0.30178000       0.36853000       0.59114000
    55  C          0.80109000       0.88599000       0.24438000
    56  C          0.19891000       0.11401000       0.75562000
    57  C          0.83088900      -0.00638900       0.31419000
    58  C          0.16911100       0.00638900       0.68581000
    59  C          0.70078700       0.91661000       0.19248000
    60  C          0.29921300       0.08339000       0.80752000
    61  O          0.93354000       0.27295000       0.01004000
    62  O          0.06646000       0.72705000       0.98996000
    63  O          0.28815000       0.73335000       0.86176000
    64  O          0.71185000       0.26665000       0.13824000
    65  O          0.09945000       0.80615000       0.80516000
    66  O          0.90055000       0.19385000       0.19484000
    67  O          0.86325000       0.43065000       0.26824000
    68  O          0.13675000       0.56935000       0.73176000
    69  O          0.56005000       0.86275000       0.45384000
    70  O          0.43995000       0.13725000       0.54616000
    71  O          0.61095000       0.98115000       0.38594000
    72  O          0.38905000       0.01885000       0.61406000
    73  N          0.93303000       0.96763000       0.79624000
    74  N          0.06697000       0.03237000       0.20376000
    75  N          0.60884000       0.68646000       0.47715000
    76  N          0.39116000       0.31354000       0.52285000
    77  C          0.84951000      -0.00381000       0.74393000
    78  C          0.15049000       0.00381000       0.25607000
    79  C          0.83269000       0.08821000       0.72992000
    80  C          0.16731000       0.91179000       0.27008000
    81  C          0.75208700       0.11031200       0.67869000
    82  C          0.24791300       0.88968800       0.32131000
    83  C          0.68548800       0.03671500       0.63818900
    84  C          0.31451200       0.96328500       0.36181100
    85  C          0.69898700       0.94548600       0.65099000
    86  C          0.30101300       0.05451400       0.34901000
    87  C          0.78328900       0.92039000       0.70282000
    88  C          0.21671100       0.07961000       0.29718000
    89  C          0.57921000       0.65238000       0.53856000
    90  C          0.42079000       0.34762000       0.46144000
    91  C          0.63812000       0.54481000       0.53047000
    92  C          0.36188000       0.45519000       0.46953000
    93  C          0.60239000       0.51611000       0.59208000
    94  C          0.39761000       0.48389000       0.40792000
    95  C          0.50478900       0.59851200       0.66038000
    96  C          0.49521100       0.40148800       0.33962000
    97  C          0.44718900       0.70551100       0.66768000
    98  C          0.55281100       0.29448900       0.33232000
    99  C          0.48119000       0.73369000       0.60737000
   100  C          0.51881000       0.26631000       0.39263000
   101  H          0.29060000       0.11460000       0.14540000
   102  H          0.70940000       0.88540000       0.85460000
   103  H          0.24080000       0.32980000       0.27060000
   104  H          0.75920000       0.67020000       0.72940000
   105  H          0.14290000       0.38790000       0.30270000
   106  H          0.85710000       0.61210000       0.69730000
   107  H          0.21090000       0.41190000       0.23370000
   108  H          0.78910000       0.58810000       0.76630000
   109  H          0.91330000       0.13170000       0.88350000
   110  H          0.08670000       0.86830000       0.11650000
   111  H          0.39570000       0.94930000       0.07750000
   112  H          0.60430000       0.05070000       0.92250000
   113  H          0.55680000       0.81320000       0.95940000
   114  H          0.44320000       0.18680000       0.04060000
   115  H          0.50190000       0.75510000       0.88730000
   116  H          0.49810000       0.24490000       0.11270000
   117  H          0.49410000       0.89489000       0.90820000
   118  H          0.50590000       0.10511000       0.09180000
   119  H          0.45480000       0.78220000       0.06660000
   120  H          0.54520000       0.21780000       0.93340000
   121  H          0.32880000       0.85720000       0.11460000
   122  H          0.67120000       0.14280000       0.88540000
   123  H          0.39480000       0.71420000       0.98930000
   124  H          0.60520000       0.28580000       0.01070000
   125  H          0.87230000       0.14270000       0.76340000
   126  H          0.12770000       0.85730000       0.23660000
   127  H          0.75140000       0.15460000       0.66650000
   128  H          0.24860000       0.84540000       0.33350000
   129  H          0.62710000       0.06290000       0.59730000
   130  H          0.37290000       0.93710000       0.40270000
   131  H          0.67590000       0.86290000       0.61220000
   132  H          0.32410000       0.13710000       0.38780000
   133  H          0.78420000       0.86320000       0.72740000
   134  H          0.21580000       0.13680000       0.27260000
   135  H          0.90990000       0.34310000       0.04580000
   136  H          0.09010000       0.65690000       0.95420000
   137  H          0.24280000       0.69820000       0.82940000
   138  H          0.75720000       0.30180000       0.17060000
   139  H          0.99189000       0.88789000       0.77620000
   140  H          0.00811000       0.11211000       0.22380000
   141  H          0.96850000       0.67350000       0.15940000
   142  H          0.03150000       0.32650000       0.84060000
   143  H          0.20970000       0.43370000       0.09860000
   144  H          0.79030000       0.56630000       0.90140000
   145  H          0.09880000       0.37490000      -0.00470000
   146  H          0.90120000       0.62510000       0.00470000
   147  H          0.11070000       0.50570000       0.04760000
   148  H          0.88930000       0.49430000       0.95240000
   149  H          0.74350000       0.56750000       0.39540000
   150  H          0.25650000       0.43250000       0.60460000
   151  H          0.85550000       0.84350000       0.19640000
   152  H          0.14450000       0.15650000       0.80360000
   153  H          0.79140000       0.02760000       0.35350000
   154  H          0.20860000       0.97240000       0.64650000
   155  H          0.84210000       0.04990000       0.29070000
   156  H          0.15790000       0.95010000       0.70930000
   157  H          0.89190000       0.96310000       0.36470000
   158  H          0.10810000       0.03690000       0.63530000
   159  H          0.60930000      -0.01230000       0.25760000
   160  H          0.39070000       0.01230000       0.74240000
   161  H          0.69890000       0.95810000       0.16380000
   162  H          0.30110000       0.04190000       0.83620000
   163  H          0.71290000       0.83311000       0.13980000
   164  H          0.28710000       0.16689000       0.86020000
   165  H          0.70030000       0.48970000       0.48950000
   166  H          0.29970000       0.51030000       0.51050000
   167  H          0.64730000       0.43670000       0.58660000
   168  H          0.35270000       0.56330000       0.41340000
   169  H          0.48520000       0.56780000       0.70070000
   170  H          0.51480000       0.43220000       0.29930000
   171  H          0.38230000       0.77970000       0.73250000
   172  H          0.61770000       0.22030000       0.26750000
   173  H          0.42720000       0.79780000       0.59260000
   174  H          0.57280000       0.20220000       0.40740000
   175  H          0.90030000       0.36070000       0.24260000
   176  H          0.09970000       0.63930000       0.75740000
   177  H          0.57640000      -0.00040000       0.43450000
   178  H          0.42360000       0.00040000       0.56550000
   179  H          0.56830000       0.73570000       0.48260000
   180  H          0.43170000       0.26430000       0.51740000
   181  C          0.53642300       0.43787900       0.85638700
   182  C          0.46357700       0.56212100       0.14361300
   183  C          0.44692200       0.42447300       0.82518200
   184  C          0.55307800       0.57552700       0.17481800
   185  Cl         0.33724000       0.44845000       0.91637000
   186  Cl         0.66276000       0.55155000       0.08363000
   187  Cl         0.63945000       0.43576000       0.78106000
   188  Cl         0.36055000       0.56424000       0.21894000
   189  H          0.51120000       0.51480000       0.91290000
   190  H          0.48880000       0.48520000       0.08710000
   191  H          0.57420000       0.37580000       0.87090000
   192  H          0.42580000       0.62420000       0.12910000
   193  H          0.41320000       0.47870000       0.80280000
   194  H          0.58680000       0.52130000       0.19720000
   195  H          0.46920000       0.34270000       0.77380000
   196  H          0.53080000       0.65730000       0.22620000
   197  C          0.97607000       0.25303300       0.52942300
   198  C          0.02393000       0.74696700       0.47057700
   199  C          0.01491700       0.32352800       0.51631200
   200  C          0.98508300       0.67647200       0.48368800
   201  Cl         0.91039000       0.21201200       0.57208000
   202  Cl         0.08961000       0.78798800       0.42792000
   203  Cl         0.96102000       0.33618000       0.43406000
   204  Cl         0.03898000       0.66382000       0.56594000
   205  H          0.93370000       0.23530000       0.47820000
   206  H          0.06630000       0.76470000       0.52180000
   207  H          0.05030000       0.18830000       0.51220000
   208  H          0.94970000       0.81170000       0.48780000
   209  H         -0.00220000       0.40130000       0.57210000
   210  H          0.00220000       0.59870000       0.42790000
   211  H          0.10020000       0.28330000       0.49810000
   212  H          0.89980000       0.71670000       0.50190000
