data_KEJTUO
_symmetry_space_group_name_H-M    'P1'
_symmetry_Int_Tables_number       1
loop_
_symmetry_equiv_pos_site_id
_symmetry_equiv_pos_as_xyz
1 x,y,z
_cell_length_a                   8.291914
_cell_length_b                   11.080221
_cell_length_c                   18.1285
_cell_angle_alpha                90.0
_cell_angle_beta                 100.13518
_cell_angle_gamma                90.0
loop_
_atom_site_label
_atom_site_type_symbol
_atom_site_fract_x
_atom_site_fract_y
_atom_site_fract_z
     1  S          0.67515600       0.31781400       0.38941300
     2  S          0.82484400       0.81781400       0.11058700
     3  S          0.32484400       0.68218600       0.61058700
     4  S          0.17515600       0.18218600       0.88941300
     5  O          0.52807190       0.38738130       0.34418100
     6  O          0.97192810       0.88738130       0.15581900
     7  O          0.47192810       0.61261870       0.65581900
     8  O          0.02807190       0.11261870       0.84418100
     9  C          0.69443000       0.37984220       0.47988130
    10  C          0.80557000       0.87984220       0.02011870
    11  C          0.30557000       0.62015780       0.52011870
    12  C          0.19443000       0.12015780       0.97988130
    13  C          0.84613000       0.38545210       0.35948140
    14  C          0.65387000       0.88545210       0.14051860
    15  C          0.15387000       0.61454790       0.64051860
    16  C          0.34613000       0.11454790       0.85948140
    17  H          0.59940000       0.35902400       0.49451500
    18  H          0.90060000       0.85902400       0.00548500
    19  H          0.40060000       0.64097600       0.50548500
    20  H          0.09940000       0.14097600      -0.00548500
    21  H          0.70930000       0.46530000       0.47791500
    22  H          0.79070000       0.96530000       0.02208500
    23  H          0.29070000       0.53470000       0.52208500
    24  H          0.20930000       0.03470000       0.97791500
    25  H          0.78930000       0.34112400       0.51291600
    26  H          0.71070000       0.84112400       0.98708400
    27  H          0.21070000       0.65887600       0.48708400
    28  H          0.28930000       0.15887600       0.01291600
    29  H          0.82530000       0.47130000       0.36481500
    30  H          0.67470000       0.97130000       0.13518500
    31  H          0.17470000       0.52870000       0.63518500
    32  H          0.32530000       0.02870000       0.86481500
    33  H          0.84530000       0.36022400       0.31591700
    34  H          0.65470000       0.86022400       0.18408300
    35  H          0.15470000       0.63977600       0.68408300
    36  H          0.34530000       0.13977600       0.81591700
    37  H          0.93840000       0.36362400       0.39721600
    38  H          0.56160000       0.86362400       0.10278400
    39  H          0.06160000       0.63637600       0.60278400
    40  H          0.43840000       0.13637600       0.89721600
    41  H          0.44840000       0.33630000       0.31601900
    42  H          0.05160000       0.83630000       0.18398100
    43  H          0.55160000       0.66370000       0.68398100
    44  H          0.94840000       0.16370000       0.81601900
    45  S          0.31787600       0.13183400       0.28430300
    46  S          0.18212400       0.63183400       0.21569700
    47  S          0.68212400       0.86816600       0.71569700
    48  S          0.81787600       0.36816600       0.78430300
    49  O          0.30872160       0.26974130       0.27500900
    50  O          0.19127840       0.76974130       0.22499100
    51  O          0.69127840       0.73025870       0.72499100
    52  O          0.80872160       0.23025870       0.77500900
    53  C          0.11453000       0.09026250       0.29071140
    54  C          0.38547000       0.59026250       0.20928860
    55  C          0.88547000       0.90973750       0.70928860
    56  C          0.61453000       0.40973750       0.79071140
    57  C          0.32214000       0.07756240       0.19265160
    58  C          0.17786000       0.57756240       0.30734840
    59  C          0.67786000       0.92243760       0.80734840
    60  C          0.82214000       0.42243760       0.69265160
    61  H          0.13230000       0.00730000       0.30011500
    62  H          0.36770000       0.50730000       0.19988500
    63  H          0.86770000      -0.00730000       0.69988500
    64  H          0.63230000       0.49270000       0.80011500
    65  H          0.03830000       0.12952300       0.24521600
    66  H          0.46170000       0.62952300       0.25478400
    67  H          0.96170000       0.87047700       0.75478400
    68  H          0.53830000       0.37047700       0.74521600
    69  H          0.09130000       0.11552500       0.33531600
    70  H          0.40870000       0.61552500       0.16468400
    71  H          0.90870000       0.88447500       0.66468400
    72  H          0.59130000       0.38447500       0.83531600
    73  H          0.40230000       0.09130000       0.18321500
    74  H          0.09770000       0.59130000       0.31678500
    75  H          0.59770000       0.90870000       0.81678500
    76  H          0.90230000       0.40870000       0.68321500
    77  H          0.23240000       0.10712500       0.15901600
    78  H          0.26760000       0.60712500       0.34098400
    79  H          0.76760000       0.89287500       0.84098400
    80  H          0.73240000       0.39287500       0.65901600
    81  H          0.31330000      -0.01230000       0.19781500
    82  H          0.18670000       0.48770000       0.30218500
    83  H          0.68670000       0.01230000       0.80218500
    84  H          0.81330000       0.51230000       0.69781500
    85  B          0.35011240       0.28174180       0.58954120
    86  B          0.14988760       0.78174180       0.91045880
    87  B          0.64988760       0.71825820       0.41045880
    88  B          0.85011240       0.21825820       0.08954120
    89  B          0.40063000       0.15025200       0.64327140
    90  B          0.09937000       0.65025200       0.85672860
    91  B          0.59937000       0.84974800       0.35672860
    92  B          0.90063000       0.34974800       0.14327140
    93  B          0.42223000       0.15221190       0.54849140
    94  B          0.07777000       0.65221190       0.95150860
    95  B          0.57777000       0.84778810       0.45150860
    96  B          0.92223000       0.34778810       0.04849140
    97  B          0.26004250       0.23734200       0.49757120
    98  B          0.23995750       0.73734200       0.00242880
    99  B          0.73995750       0.76265800       0.50242880
   100  B          0.76004250       0.26265800      -0.00242880
   101  B          0.13213000       0.28414180       0.55951130
   102  B          0.36787000       0.78414180       0.94048870
   103  B          0.86787000       0.71585820       0.44048870
   104  B          0.63213000       0.21585820       0.05951130
   105  B          0.21973000       0.22831200       0.65211130
   106  B          0.28027000       0.72831200       0.84788870
   107  B          0.78027000       0.77168800       0.34788870
   108  B          0.71973000       0.27168800       0.15211130
   109  C          0.32146220       0.03677170       0.58313110
   110  C          0.17853780       0.53677170       0.91686890
   111  C          0.67853780       0.96322830       0.41686890
   112  C          0.82146220       0.46322830       0.08313110
   113  C          0.24401230       0.08355170       0.50477110
   114  C          0.25598770       0.58355170      -0.00477110
   115  C          0.75598770       0.91644830       0.49522890
   116  C          0.74401230       0.41644830       0.00477110
   117  B          0.07583000       0.15604190       0.50337130
   118  B          0.42417000       0.65604190      -0.00337130
   119  B          0.92417000       0.84395810       0.49662870
   120  B          0.57583000       0.34395810       0.00337130
   121  B          0.04133000       0.16088200       0.59958130
   122  B          0.45867000       0.66088200       0.90041870
   123  B          0.95867000       0.83911800       0.40041870
   124  B          0.54133000       0.33911800       0.09958130
   125  B          0.21503000       0.06871200       0.64694130
   126  B          0.28497000       0.56871200       0.85305870
   127  B          0.78497000       0.93128800       0.35305870
   128  B          0.71503000       0.43128800       0.14694130
   129  H          0.42530000       0.36571900       0.60341300
   130  H          0.07470000       0.86571900       0.89658700
   131  H          0.57470000       0.63428100       0.39658700
   132  H          0.92530000       0.13428100       0.10341300
   133  H          0.49930000       0.13292300       0.68261500
   134  H          0.00070000       0.63292300       0.81738500
   135  H          0.50070000       0.86707700       0.31738500
   136  H         -0.00070000       0.36707700       0.18261500
   137  H          0.53830000       0.14072300       0.52911500
   138  H          0.96170000       0.64072300       0.97088500
   139  H          0.46170000       0.85927700       0.47088500
   140  H          0.03830000       0.35927700       0.02911500
   141  H          0.28230000       0.28332400       0.44741400
   142  H          0.21770000       0.78332400       0.05258600
   143  H          0.71770000       0.71667600       0.55258600
   144  H          0.78230000       0.21667600       0.94741400
   145  H          0.06130000       0.36712300       0.55181400
   146  H          0.43870000       0.86712300       0.94818600
   147  H          0.93870000       0.63287700       0.44818600
   148  H          0.56130000       0.13287700       0.05181400
   149  H          0.21130000       0.28432300       0.69911500
   150  H          0.28870000       0.78432300       0.80088500
   151  H          0.78870000       0.71567700       0.30088500
   152  H          0.71130000       0.21567700       0.19911500
   153  H          0.38430000       0.96567600       0.58091400
   154  H          0.11570000       0.46567600       0.91908600
   155  H          0.61570000       0.03432400       0.41908600
   156  H          0.88430000       0.53432400       0.08091400
   157  H          0.26430000       0.03122300       0.46501500
   158  H          0.23570000       0.53122300       0.03498500
   159  H          0.73570000       0.96877700       0.53498500
   160  H          0.76430000       0.46877700       0.96501500
   161  H         -0.01430000       0.15512300       0.46351600
   162  H          0.51430000       0.65512300       0.03648400
   163  H          0.01430000       0.84487700       0.53648400
   164  H          0.48570000       0.34487700       0.96351600
   165  H          0.92170000       0.17372100       0.61701500
   166  H          0.57830000       0.67372100       0.88298500
   167  H          0.07830000       0.82627900       0.38298500
   168  H          0.42170000       0.32627900       0.11701500
   169  H          0.21030000       0.01022300       0.69441400
   170  H          0.28970000       0.51022300       0.80558600
   171  H          0.78970000      -0.01022300       0.30558600
   172  H          0.71030000       0.48977700       0.19441400
   173  H          0.04930000       0.06482400       0.57621500
   174  H          0.45070000       0.56482400       0.92378500
   175  H          0.95070000       0.93517600       0.42378500
   176  H          0.54930000       0.43517600       0.07621500
