data_KEKFOW
_symmetry_space_group_name_H-M    'P1'
_symmetry_Int_Tables_number       1
loop_
_symmetry_equiv_pos_site_id
_symmetry_equiv_pos_as_xyz
1 x,y,z
_cell_length_a                   5.06954
_cell_length_b                   32.7883
_cell_length_c                   5.28035
_cell_angle_alpha                90.0
_cell_angle_beta                 91.951
_cell_angle_gamma                90.0
loop_
_atom_site_label
_atom_site_type_symbol
_atom_site_fract_x
_atom_site_fract_y
_atom_site_fract_z
     1  S          0.54364110       0.75000000       0.40826100
     2  S          0.45635890       0.25000000       0.59173900
     3  O          0.24543000       0.75000000       0.35094000
     4  O          0.75457000       0.25000000       0.64906000
     5  C          0.59655000       0.70882600       0.62094000
     6  C          0.40345000       0.20882600       0.37906000
     7  C          0.40345000       0.29117400       0.37906000
     8  C          0.59655000       0.79117400       0.62094000
     9  H          0.77160000       0.71079000       0.69060000
    10  H          0.22840000       0.21079000       0.30940000
    11  H          0.22840000       0.28921000       0.30940000
    12  H          0.77160000       0.78921000       0.69060000
    13  H          0.48260000       0.71148000       0.74750000
    14  H          0.51740000       0.21148000       0.25250000
    15  H          0.51740000       0.28852000       0.25250000
    16  H          0.48260000       0.78852000       0.74750000
    17  H          0.55850000       0.68258000       0.53150000
    18  H          0.44150000       0.18258000       0.46850000
    19  H          0.44150000       0.31742000       0.46850000
    20  H          0.55850000       0.81742000       0.53150000
    21  O          0.94828000       0.55438300       0.32702000
    22  O          0.05172000       0.05438300       0.67298000
    23  O          0.05172000       0.44561700       0.67298000
    24  O          0.94828000       0.94561700       0.32702000
    25  O          0.39092000       0.59891300       0.63908000
    26  O          0.60908000       0.09891300       0.36092000
    27  O          0.60908000       0.40108700       0.36092000
    28  O          0.39092000       0.90108700       0.63908000
    29  O          0.37382000       0.65389300       0.14092000
    30  O          0.62618000       0.15389300       0.85908000
    31  O          0.62618000       0.34610700       0.85908000
    32  O          0.37382000       0.84610700       0.14092000
    33  O         -0.00182000       0.68982400       0.11323000
    34  O          0.00182000       0.18982400       0.88677000
    35  O          0.00182000       0.31017600       0.88677000
    36  O         -0.00182000       0.81017600       0.11323000
    37  H          0.09650000       0.70878000       0.18850000
    38  H          0.90350000       0.20878000       0.81150000
    39  H          0.90350000       0.29122000       0.81150000
    40  H          0.09650000       0.79122000       0.18850000
    41  N          0.12332000       0.58437400      -0.02602000
    42  N          0.87668000       0.08437400       0.02602000
    43  N          0.87668000       0.41562600       0.02602000
    44  N          0.12332000       0.91562600      -0.02602000
    45  C          0.10313000       0.55425400       0.15783000
    46  C          0.89687000       0.05425400       0.84217000
    47  C          0.89687000       0.44574600       0.84217000
    48  C          0.10313000       0.94574600       0.15783000
    49  C          0.32683000       0.57652400       0.80727000
    50  C          0.67317000       0.07652400       0.19273000
    51  C          0.67317000       0.42347600       0.19273000
    52  C          0.32683000       0.92347600       0.80727000
    53  C          0.43843000       0.53617400       0.88607000
    54  C          0.56157000       0.03617400       0.11393000
    55  C          0.56157000       0.46382600       0.11393000
    56  C          0.43843000       0.96382600       0.88607000
    57  C          0.30493000       0.52284400       0.09742000
    58  C          0.69507000       0.02284400       0.90258000
    59  C          0.69507000       0.47715600       0.90258000
    60  C          0.30493000       0.97715600       0.09742000
    61  C          0.63963000       0.51375400       0.78017000
    62  C          0.36037000       0.01375400       0.21983000
    63  C          0.36037000       0.48624600       0.21983000
    64  C          0.63963000       0.98624600       0.78017000
    65  H          0.73840000       0.52327000       0.63860000
    66  H          0.26160000       0.02327000       0.36140000
    67  H          0.26160000       0.47673000       0.36140000
    68  H          0.73840000       0.97673000       0.63860000
    69  C         -0.02453000       0.62193400      -0.02363000
    70  C          0.02453000       0.12193400       0.02363000
    71  C          0.02453000       0.37806600       0.02363000
    72  C         -0.02453000       0.87806600      -0.02363000
    73  H          0.83260000       0.61836000       0.08240000
    74  H          0.16740000       0.11836000       0.91760000
    75  H          0.16740000       0.38164000       0.91760000
    76  H          0.83260000       0.88164000       0.08240000
    77  H          0.91860000       0.62866000       0.80260000
    78  H          0.08140000       0.12866000       0.19740000
    79  H          0.08140000       0.37134000       0.19740000
    80  H          0.91860000       0.87134000       0.80260000
    81  C          0.14273000       0.65640400       0.08713000
    82  C          0.85727000       0.15640400       0.91287000
    83  C          0.85727000       0.34359600       0.91287000
    84  C          0.14273000       0.84359600       0.08713000
