data_KEKGAJ
_symmetry_space_group_name_H-M    'P1'
_symmetry_Int_Tables_number       1
loop_
_symmetry_equiv_pos_site_id
_symmetry_equiv_pos_as_xyz
1 x,y,z
_cell_length_a                   5.09784
_cell_length_b                   16.980012
_cell_length_c                   26.8302
_cell_angle_alpha                90.0
_cell_angle_beta                 90.0
_cell_angle_gamma                90.0
loop_
_atom_site_label
_atom_site_type_symbol
_atom_site_fract_x
_atom_site_fract_y
_atom_site_fract_z
     1  C          0.35922000       0.06460800       0.43628500
     2  C          0.14078000       0.43539200       0.93628500
     3  C          0.64078000       0.06460800       0.06371500
     4  C          0.85922000       0.43539200       0.56371500
     5  C          0.64078000       0.93539200       0.56371500
     6  C          0.85922000       0.56460800       0.06371500
     7  C          0.35922000       0.93539200       0.93628500
     8  C          0.14078000       0.56460800       0.43628500
     9  C          0.17583000       0.10482100       0.46406600
    10  C          0.32417000       0.39517900       0.96406600
    11  C          0.82417000       0.10482100       0.03593400
    12  C          0.67583000       0.39517900       0.53593400
    13  C          0.82417000       0.89517900       0.53593400
    14  C          0.67583000       0.60482100       0.03593400
    15  C          0.17583000       0.89517900       0.96406600
    16  C          0.32417000       0.60482100       0.46406600
    17  H          0.06040000       0.07850000       0.48510000
    18  H          0.43960000       0.42150000       0.98510000
    19  H          0.93960000       0.07850000       0.01490000
    20  H          0.56040000       0.42150000       0.51490000
    21  H          0.93960000       0.92150000       0.51490000
    22  H          0.56040000       0.57850000       0.01490000
    23  H          0.06040000       0.92150000       0.98510000
    24  H          0.43960000       0.57850000       0.48510000
    25  C          0.17043000       0.18591100       0.45932700
    26  C          0.32957000       0.31408900       0.95932700
    27  C          0.82957000       0.18591100       0.04067300
    28  C          0.67043000       0.31408900       0.54067300
    29  C          0.82957000       0.81408900       0.54067300
    30  C          0.67043000       0.68591100       0.04067300
    31  C          0.17043000       0.81408900       0.95932700
    32  C          0.32957000       0.68591100       0.45932700
    33  H          0.04780000       0.21470000       0.47740000
    34  H          0.45220000       0.28530000       0.97740000
    35  H          0.95220000       0.21470000       0.02260000
    36  H          0.54780000       0.28530000       0.52260000
    37  H          0.95220000       0.78530000       0.52260000
    38  H          0.54780000       0.71470000       0.02260000
    39  H          0.04780000       0.78530000       0.97740000
    40  H          0.45220000       0.71470000       0.47740000
    41  C          0.34253000       0.22509100       0.42837700
    42  C          0.15747000       0.27490900       0.92837700
    43  C          0.65747000       0.22509100       0.07162300
    44  C          0.84253000       0.27490900       0.57162300
    45  C          0.65747000       0.77490900       0.57162300
    46  C          0.84253000       0.72509100       0.07162300
    47  C          0.34253000       0.77490900       0.92837700
    48  C          0.15747000       0.72509100       0.42837700
    49  H          0.33370000       0.27970000       0.42600000
    50  H          0.16630000       0.22030000       0.92600000
    51  H          0.66630000       0.27970000       0.07400000
    52  H          0.83370000       0.22030000       0.57400000
    53  H          0.66630000       0.72030000       0.57400000
    54  H          0.83370000       0.77970000       0.07400000
    55  H          0.33370000       0.72030000       0.92600000
    56  H          0.16630000       0.77970000       0.42600000
    57  C          0.52823000       0.18474900       0.40071600
    58  C          0.97177000       0.31525100       0.90071600
    59  C          0.47177000       0.18474900       0.09928400
    60  C          0.02823000       0.31525100       0.59928400
    61  C          0.47177000       0.81525100       0.59928400
    62  C          0.02823000       0.68474900       0.09928400
    63  C          0.52823000       0.81525100       0.90071600
    64  C          0.97177000       0.68474900       0.40071600
    65  H          0.64510000       0.21100000       0.37990000
    66  H          0.85490000       0.28900000       0.87990000
    67  H          0.35490000       0.21100000       0.12010000
    68  H          0.14510000       0.28900000       0.62010000
    69  H          0.35490000       0.78900000       0.62010000
    70  H          0.14510000       0.71100000       0.12010000
    71  H          0.64510000       0.78900000       0.87990000
    72  H          0.85490000       0.71100000       0.37990000
    73  C          0.53212000       0.10409800       0.40533500
    74  C          0.96788000       0.39590200       0.90533500
    75  C          0.46788000       0.10409800       0.09466500
    76  C          0.03212000       0.39590200       0.59466500
    77  C          0.46788000       0.89590200       0.59466500
    78  C          0.03212000       0.60409800       0.09466500
    79  C          0.53212000       0.89590200       0.90533500
    80  C          0.96788000       0.60409800       0.40533500
    81  C          0.70063000       0.04490800       0.38023500
    82  C          0.79937000       0.45509200       0.88023500
    83  C          0.29937000       0.04490800       0.11976500
    84  C          0.20063000       0.45509200       0.61976500
    85  C          0.29937000       0.95509200       0.61976500
    86  C          0.20063000       0.54490800       0.11976500
    87  C          0.70063000       0.95509200       0.88023500
    88  C          0.79937000       0.54490800       0.38023500
    89  C          0.40993000       0.97909200       0.43130500
    90  C          0.09007000       0.52090800       0.93130500
    91  C          0.59007000       0.97909200       0.06869500
    92  C          0.90993000       0.52090800       0.56869500
    93  C          0.59007000       0.02090800       0.56869500
    94  C          0.90993000       0.47909200       0.06869500
    95  C          0.40993000       0.02090800       0.93130500
    96  C          0.09007000       0.47909200       0.43130500
    97  C          0.70733000       0.89700100       0.37981600
    98  C          0.79267000       0.60299900       0.87981600
    99  C          0.29267000       0.89700100       0.12018400
   100  C          0.20733000       0.60299900       0.62018400
   101  C          0.29267000       0.10299900       0.62018400
   102  C          0.20733000       0.39700100       0.12018400
   103  C          0.70733000       0.10299900       0.87981600
   104  C          0.79267000       0.39700100       0.37981600
   105  C          0.51653000       0.86607200       0.34135500
   106  C         -0.01653000       0.63392800       0.84135500
   107  C          0.48347000       0.86607200       0.15864500
   108  C          0.01653000       0.63392800       0.65864500
   109  C          0.48347000       0.13392800       0.65864500
   110  C          0.01653000       0.36607200       0.15864500
   111  C          0.51653000       0.13392800       0.84135500
   112  C         -0.01653000       0.36607200       0.34135500
   113  H          0.87330000       0.90219000       0.36487000
   114  H          0.62670000       0.59781000       0.86487000
   115  H          0.12670000       0.90219000       0.13513000
   116  H          0.37330000       0.59781000       0.63513000
   117  H          0.12670000       0.09781000       0.63513000
   118  H          0.37330000       0.40219000       0.13513000
   119  H          0.87330000       0.09781000       0.86487000
   120  H          0.62670000       0.40219000       0.36487000
   121  H          0.72340000       0.85818800       0.40727000
   122  H          0.77660000       0.64181200       0.90727000
   123  H          0.27660000       0.85818800       0.09273000
   124  H          0.22340000       0.64181200       0.59273000
   125  H          0.27660000       0.14181200       0.59273000
   126  H          0.22340000       0.35818800       0.09273000
   127  H          0.72340000       0.14181200       0.90727000
   128  H          0.77660000       0.35818800       0.40727000
   129  H          0.38850000       0.76848600       0.30739000
   130  H          0.11150000       0.73151400       0.80739000
   131  H          0.61150000       0.76848600       0.19261000
   132  H          0.88850000       0.73151400       0.69261000
   133  H          0.61150000       0.23151400       0.69261000
   134  H          0.88850000       0.26848600       0.19261000
   135  H          0.38850000       0.23151400       0.80739000
   136  H          0.11150000       0.26848600       0.30739000
   137  N          0.62282000       0.97203300       0.39934400
   138  N          0.87718000       0.52796700       0.89934400
   139  N          0.37718000       0.97203300       0.10065600
   140  N          0.12282000       0.52796700       0.60065600
   141  N          0.37718000       0.02796700       0.60065600
   142  N          0.12282000       0.47203300       0.10065600
   143  N          0.62282000       0.02796700       0.89934400
   144  N          0.87718000       0.47203300       0.39934400
   145  O          0.29522000       0.92401300       0.44982500
   146  O          0.20478000       0.57598700       0.94982500
   147  O          0.70478000       0.92401300       0.05017500
   148  O          0.79522000       0.57598700       0.55017500
   149  O          0.70478000       0.07598700       0.55017500
   150  O          0.79522000       0.42401300       0.05017500
   151  O          0.29522000       0.07598700       0.94982500
   152  O          0.20478000       0.42401300       0.44982500
   153  O          0.87092000       0.05376700       0.34977500
   154  O          0.62908000       0.44623300       0.84977500
   155  O          0.12908000       0.05376700       0.15022500
   156  O          0.37092000       0.44623300       0.65022500
   157  O          0.12908000       0.94623300       0.65022500
   158  O          0.37092000       0.55376700       0.15022500
   159  O          0.87092000       0.94623300       0.84977500
   160  O          0.62908000       0.55376700       0.34977500
   161  O          0.35572000       0.90828300       0.32190500
   162  O          0.14428000       0.59171700       0.82190500
   163  O          0.64428000       0.90828300       0.17809500
   164  O          0.85572000       0.59171700       0.67809500
   165  O          0.64428000       0.09171700       0.67809500
   166  O          0.85572000       0.40828300       0.17809500
   167  O          0.35572000       0.09171700       0.82190500
   168  O          0.14428000       0.40828300       0.32190500
   169  O          0.54502000       0.79145400       0.33246400
   170  O          0.95498000       0.70854600       0.83246400
   171  O          0.45498000       0.79145400       0.16753600
   172  O          0.04502000       0.70854600       0.66753600
   173  O          0.45498000       0.20854600       0.66753600
   174  O          0.04502000       0.29145400       0.16753600
   175  O          0.54502000       0.20854600       0.83246400
   176  O          0.95498000       0.29145400       0.33246400
   177  C          0.17923000       0.64781900       0.27702600
   178  C          0.32077000       0.85218100       0.77702600
   179  C          0.82077000       0.64781900       0.22297400
   180  C          0.67923000       0.85218100       0.72297400
   181  C          0.82077000       0.35218100       0.72297400
   182  C          0.67923000       0.14781900       0.22297400
   183  C          0.17923000       0.35218100       0.77702600
   184  C          0.32077000       0.14781900       0.27702600
   185  H          0.30280000       0.62090000       0.29600000
   186  H          0.19720000       0.87910000       0.79600000
   187  H          0.69720000       0.62090000       0.20400000
   188  H          0.80280000       0.87910000       0.70400000
   189  H          0.69720000       0.37910000       0.70400000
   190  H          0.80280000       0.12090000       0.20400000
   191  H          0.30280000       0.37910000       0.79600000
   192  H          0.19720000       0.12090000       0.29600000
   193  C         -0.00000000       0.60513130       0.25000000
   194  C          0.50000000       0.89486870       0.75000000
   195  C          0.00000000       0.39486870       0.75000000
   196  C          0.50000000       0.10513130       0.25000000
   197  H         -0.00000000       0.55040000       0.25000000
   198  H          0.50000000       0.94960000       0.75000000
   199  H          0.00000000       0.44960000       0.75000000
   200  H          0.50000000       0.05040000       0.25000000
   201  C         -0.00000000       0.76465120       0.25000000
   202  C          0.50000000       0.73534880       0.75000000
   203  C         -0.00000000       0.23534880       0.75000000
   204  C          0.50000000       0.26465120       0.25000000
   205  H          0.11430000       0.86831000       0.27047000
   206  H          0.38570000       0.63169000       0.77047000
   207  H          0.88570000       0.86831000       0.22953000
   208  H          0.61430000       0.63169000       0.72953000
   209  H          0.88570000       0.13169000       0.72953000
   210  H          0.61430000       0.36831000       0.22953000
   211  H          0.11430000       0.13169000       0.77047000
   212  H          0.38570000       0.36831000       0.27047000
   213  N         -0.00000000       0.84276110       0.25000000
   214  N          0.50000000       0.65723890       0.75000000
   215  N          0.00000000       0.15723890       0.75000000
   216  N          0.50000000       0.34276110       0.25000000
   217  N          0.18322000       0.72636700       0.27717400
   218  N          0.31678000       0.77363300       0.77717400
   219  N          0.81678000       0.72636700       0.22282600
   220  N          0.68322000       0.77363300       0.72282600
   221  N          0.81678000       0.27363300       0.72282600
   222  N          0.68322000       0.22636700       0.22282600
   223  N          0.18322000       0.27363300       0.77717400
   224  N          0.31678000       0.22636700       0.27717400
