data_KELYAE
_symmetry_space_group_name_H-M    'P1'
_symmetry_Int_Tables_number       1
loop_
_symmetry_equiv_pos_site_id
_symmetry_equiv_pos_as_xyz
1 x,y,z
_cell_length_a                   10.799518
_cell_length_b                   11.498219
_cell_length_c                   14.5732
_cell_angle_alpha                81.3712
_cell_angle_beta                 83.3372
_cell_angle_gamma                88.8323
loop_
_atom_site_label
_atom_site_type_symbol
_atom_site_fract_x
_atom_site_fract_y
_atom_site_fract_z
     1  S          0.59952400       0.85043300       0.16595300
     2  S          0.40047600       0.14956700       0.83404700
     3  S          0.57130400       0.88656300       0.92483700
     4  S          0.42869600       0.11343700       0.07516300
     5  N          0.69895120       0.43273110       0.13873900
     6  N          0.30104880       0.56726890       0.86126100
     7  N          0.67145120       0.45957110       0.94456100
     8  N          0.32854880       0.54042890       0.05543900
     9  C          0.66894140       0.53610130       0.09137110
    10  C          0.33105860       0.46389870       0.90862890
    11  C          0.65165140       0.63656130       0.13996100
    12  C          0.34834860       0.36343870       0.86003900
    13  C          0.60623140       0.75901130      -0.00463110
    14  C          0.39376860       0.24098870       0.00463110
    15  C          0.71686140       0.34160130       0.08970110
    16  C          0.28313860       0.65839870       0.91029890
    17  C          0.61779140       0.74462130       0.09291110
    18  C          0.38220860       0.25537870       0.90708890
    19  C          0.65444130       0.54950130      -0.00707110
    20  C          0.34555870       0.45049870       0.00707110
    21  C          0.62290140       0.66476130       0.94559890
    22  C          0.37709860       0.33523870       0.05440110
    23  C          0.60532150       0.69776140       0.84945890
    24  C          0.39467850       0.30223860       0.15054110
    25  H          0.61252500       0.64478400       0.80496000
    26  H          0.38747500       0.35521600       0.19504000
    27  C          0.70350140       0.35470130      -0.00782110
    28  C          0.29649860       0.64529870       0.00782110
    29  C          0.72608160       0.25611140       0.94407880
    30  C          0.27391840       0.74388860       0.05592120
    31  H          0.71781100       0.26343300       0.87926700
    32  H          0.28218900       0.73656700       0.12073300
    33  C          0.75037150       0.22959130       0.13683120
    34  C          0.24962850       0.77040870       0.86316880
    35  H          0.75776100       0.21945300       0.20187400
    36  H          0.24223900       0.78054700       0.79812600
    37  C          0.63971160       0.75035140       0.25866110
    38  C          0.36028840       0.24964860       0.74133890
    39  H          0.64373400       0.76947000       0.31944100
    40  H          0.35626600       0.23053000       0.68055900
    41  C          0.75989160       0.15031140      -0.00814130
    42  C          0.24010840       0.84968860       0.00814130
    43  H          0.77558100       0.08479800       0.95943100
    44  H          0.22441900       0.91520200       0.04056900
    45  C          0.77177160       0.13713140       0.08849120
    46  C          0.22822840       0.86286860       0.91150880
    47  H          0.79494700       0.06293800       0.12007900
    48  H          0.20505300       0.93706200       0.87992100
    49  C          0.66484150       0.64190130       0.23564110
    50  C          0.33515850       0.35809870       0.76435890
    51  H          0.68855900       0.57673700       0.27827600
    52  H          0.31144100       0.42326300       0.72172400
    53  C          0.57710160       0.81381150       0.82914890
    54  C          0.42289840       0.18618850       0.17085110
    55  H          0.56214200       0.85093700       0.76866700
    56  H          0.43785800       0.14906300       0.23133300
    57  S          0.22782400       0.86629400       0.30061300
    58  S          0.77217600       0.13370600       0.69938700
    59  S          0.37157400       0.76880300       0.50413300
    60  S          0.62842600       0.23119700       0.49586700
    61  N          0.96714120       0.57754110       0.63301900
    62  N          0.03285880       0.42245890       0.36698100
    63  N          0.85204120       0.65343110       0.46753900
    64  N          0.14795880       0.34656890       0.53246100
    65  C          0.02847140       0.64134120       0.55743110
    66  C          0.97152860       0.35865880       0.44256890
    67  C          0.04123150       0.74989130       0.39542110
    68  C          0.95876850       0.25010870       0.60457890
    69  C          0.97018140       0.67937130       0.47386110
    70  C          0.02981860       0.32062870       0.52613890
    71  C          0.22175140       0.74023130       0.48332110
    72  C          0.77824860       0.25976870       0.51667890
    73  C          0.15604140       0.67423130       0.56066110
    74  C          0.84395860       0.32576870       0.43933890
    75  C          0.16434150       0.77872130       0.40104110
    76  C          0.83565850       0.22127870       0.59895890
    77  C          0.79007140       0.58709130       0.54314110
    78  C          0.20992860       0.41290870       0.45685890
    79  C          0.65663150       0.45300140       0.69842120
    80  C          0.34336850       0.54699860       0.30157880
    81  H          0.61011300       0.40769100       0.75045800
    82  H          0.38988700       0.59230900       0.24954200
    83  C          0.66414150       0.55642140       0.54052120
    84  C          0.33585850       0.44357860       0.45947880
    85  H          0.62450000       0.58162400       0.48603100
    86  H          0.37550000       0.41837600       0.51396900
    87  C          0.84773140       0.54937130       0.62599110
    88  C          0.15226860       0.45062870       0.37400890
    89  C          0.77742150       0.48110140       0.70357120
    90  C          0.22257850       0.51889860       0.29642880
    91  H          0.81476600       0.45511900       0.75899400
    92  H          0.18523400       0.54488100       0.24100600
    93  C          0.22851150       0.64869130       0.63725110
    94  C          0.77148850       0.35130870       0.36274890
    95  H          0.19845600       0.60505500       0.69596000
    96  H          0.80154400       0.39494500       0.30404000
    97  C          0.00056160       0.79847140       0.30797110
    98  C         -0.00056160       0.20152860       0.69202890
    99  H          0.91966400       0.78693200       0.29140000
   100  H          0.08033600       0.21306800       0.70860000
   101  C          0.34523150       0.69391130       0.61654120
   102  C          0.65476850       0.30608870       0.38345880
   103  H          0.40599000       0.68529700       0.65931100
   104  H          0.59401000       0.31470300       0.34068900
   105  C          0.59993150       0.49081140       0.61608120
   106  C          0.40006850       0.50918860       0.38391880
   107  H          0.51582800       0.47011000       0.61350200
   108  H          0.48417200       0.52989000       0.38649800
   109  C          0.09068160       0.86305150       0.25115120
   110  C          0.90931840       0.13694850       0.74884880
   111  H          0.07938100       0.90233100       0.19051700
   112  H          0.92061900       0.09766900       0.80948300
   113  C          0.87722140       0.97377120       0.48542100
   114  C          0.12277860       0.02622880       0.51457900
   115  C          0.92527150       0.93031130       0.57264110
   116  C          0.07472850       0.06968870       0.42735890
   117  H          0.87331700       0.88491600       0.61751300
   118  H          0.12668300       0.11508400       0.38248700
   119  C          0.75734140       0.94884130       0.47194100
   120  C          0.24265860       0.05115870       0.52805900
   121  C          0.95813150       0.04539130       0.41315100
   122  C          0.04186850       0.95460870       0.58684900
   123  H          0.92829400       0.07527400       0.35537300
   124  H          0.07170600       0.92472600       0.64462700
   125  C          0.67575150       0.88016140       0.54388110
   126  C          0.32424850       0.11983860       0.45611890
   127  N          0.66052140       0.01575120       0.31861100
   128  N          0.33947860       0.98424880       0.68138900
   129  C          0.70528150       0.98771130       0.38623110
   130  C          0.29471850       0.01228870       0.61376890
   131  N          0.61036140       0.82505140       0.60097100
   132  N          0.38963860       0.17494860       0.39902900
   133  C          0.92291150       0.81387140       0.02870120
   134  C          0.07708850       0.18612860       0.97129880
   135  C          0.98322140       0.54622130       0.90682890
   136  C          0.01677860       0.45377870       0.09317110
   137  H          0.97154200       0.57874100       0.84454200
   138  H          0.02845800       0.42125900       0.15545800
   139  C          0.93638140       0.73739130       0.95911890
   140  C          0.06361860       0.26260870       0.04088110
   141  C          0.96746140       0.62005130       0.97948890
   142  C          0.03253860       0.37994870       0.02051110
   143  N          0.91307140       0.87586130       0.08394110
   144  N          0.08692860       0.12413870       0.91605890
   145  C          0.98569140       0.56823140       0.07346110
   146  C          0.01430860       0.43176860       0.92653890
   147  H          0.97566900       0.61536900       0.12207600
   148  H          0.02433100       0.38463100       0.87792400
   149  N          0.90773160       0.83276140       0.79094890
   150  N          0.09226840       0.16723860       0.20905110
   151  C          0.91970160       0.79082140       0.86568880
   152  C          0.08029840       0.20917860       0.13431120
