data_KELZUX
_symmetry_space_group_name_H-M    'P1'
_symmetry_Int_Tables_number       1
loop_
_symmetry_equiv_pos_site_id
_symmetry_equiv_pos_as_xyz
1 x,y,z
_cell_length_a                   5.67054
_cell_length_b                   9.99547
_cell_length_c                   17.323412
_cell_angle_alpha                83.1374
_cell_angle_beta                 81.6554
_cell_angle_gamma                77.1633
loop_
_atom_site_label
_atom_site_type_symbol
_atom_site_fract_x
_atom_site_fract_y
_atom_site_fract_z
     1  Br         0.07484600       0.73579700       0.99105581
     2  Br         0.92515400       0.26420300       0.00894419
     3  S          0.39401130       0.02539700       0.27817400
     4  S          0.60598870       0.97460300       0.72182600
     5  O          0.44164000       0.94508000       0.35095110
     6  O          0.55836000       0.05492000       0.64904890
     7  O          0.15154000       0.06332000       0.25729120
     8  O          0.84846000       0.93668000       0.74270880
     9  N          0.49725000       0.16292000       0.28214130
    10  N          0.50275000       0.83708000       0.71785870
    11  H          0.61040000       0.14930000       0.31441400
    12  H          0.38960000       0.85070000       0.68558600
    13  C          0.57745000       0.93787000       0.20042160
    14  C          0.42255000       0.06213000       0.79957840
    15  C          0.48526000       0.94217000       0.12992170
    16  C          0.51474000       0.05783000       0.87007830
    17  H          0.32300000      -0.01080000       0.12390000
    18  H          0.67700000       0.01080000       0.87610000
    19  C          0.63246000       0.87727000       0.06868180
    20  C          0.36754000       0.12273000       0.93131820
    21  H          0.57080000       0.87720000       0.02060000
    22  H          0.42920000       0.12280000       0.97940000
    23  C          0.86935000       0.81287000       0.07796170
    24  C          0.13065000       0.18713000       0.92203830
    25  C          0.95916000       0.80497000       0.14920180
    26  C          0.04084000       0.19503000       0.85079820
    27  H          0.12060000       0.75690000       0.15540000
    28  H          0.87940000       0.24310000       0.84460000
    29  C          0.81146000       0.86757000       0.21064180
    30  C          0.18854000       0.13243000       0.78935820
    31  H          0.87000000       0.86250000       0.25980000
    32  H          0.13000000       0.13750000       0.74020000
    33  C          0.50825000       0.27363000       0.22341160
    34  C          0.49175000       0.72637000       0.77658840
    35  C          0.35125000       0.30863000       0.16661170
    36  C          0.64875000       0.69137000       0.83338830
    37  H          0.23540000       0.25440000       0.16360000
    38  H          0.76460000       0.74560000       0.83640000
    39  C          0.36506000       0.42403000       0.11402170
    40  C          0.63494000       0.57597000       0.88597830
    41  H          0.25820000       0.44830000       0.07480000
    42  H          0.74180000       0.55170000       0.92520000
    43  C          0.53346000       0.50413000       0.11825180
    44  C          0.46654000       0.49587000       0.88174820
    45  H          0.54130000       0.58290000       0.08220000
    46  H          0.45870000       0.41710000       0.91780000
    47  C          0.68856000       0.46833000       0.17500180
    48  C          0.31144000       0.53167000       0.82499820
    49  H          0.80270000       0.52330000       0.17840000
    50  H          0.19730000       0.47670000       0.82160000
    51  C          0.67935000       0.35223000       0.22734170
    52  C          0.32065000       0.64777000       0.77265830
    53  H          0.78940000       0.32670000       0.26560000
    54  H          0.21060000       0.67330000       0.73440000
    55  C          0.12875000       0.27803000       0.55967150
    56  C          0.87125000       0.72197000       0.44032850
    57  C          0.90395000       0.28653000       0.60540170
    58  C          0.09605000       0.71347000       0.39459830
    59  H          0.81250000       0.21720000       0.60650000
    60  H          0.18750000       0.78280000       0.39350000
    61  C          0.81654000       0.39803000       0.64914180
    62  C          0.18346000       0.60197000       0.35085820
    63  H          0.66430000       0.40510000       0.68120000
    64  H          0.33570000       0.59490000       0.31880000
    65  C          0.94864000       0.49873000       0.64662190
    66  C          0.05136000       0.50127000       0.35337810
    67  H          0.88700000       0.57520000       0.67670000
    68  H          0.11300000       0.42480000       0.32330000
    69  C          0.17026000       0.48883000       0.60061190
    70  C          0.82974000       0.51117000       0.39938810
    71  H          0.26010000       0.55900000       0.59890000
    72  H          0.73990000       0.44100000       0.40110000
    73  C          0.26285000       0.37793000       0.55700170
    74  C          0.73715000       0.62207000       0.44299830
    75  H          0.41640000       0.37070000       0.52570000
    76  H          0.58360000       0.62930000       0.47430000
    77  N          0.21944000       0.16142000       0.51242140
    78  N          0.78056000       0.83858000       0.48757860
    79  H          0.36440000       0.17020000       0.48420000
    80  H          0.63560000       0.82980000       0.51580000
    81  H          0.10980000       0.15970000       0.47920000
    82  H          0.89020000       0.84030000       0.52080000
    83  H          0.24050000       0.08170000       0.54440000
    84  H          0.75950000       0.91830000       0.45560000
    85  Cl         0.76523120       0.15174600       0.43098400
    86  Cl         0.23476880       0.84825400       0.56901600
