data_KEMRAZ
_symmetry_space_group_name_H-M    'P1'
_symmetry_Int_Tables_number       1
loop_
_symmetry_equiv_pos_site_id
_symmetry_equiv_pos_as_xyz
1 x,y,z
_cell_length_a                   8.30229
_cell_length_b                   11.351011
_cell_length_c                   15.565616
_cell_angle_alpha                83.6914
_cell_angle_beta                 87.1804
_cell_angle_gamma                75.0244
loop_
_atom_site_label
_atom_site_type_symbol
_atom_site_fract_x
_atom_site_fract_y
_atom_site_fract_z
     1  I          0.31247200       0.58104200       0.72662200
     2  I          0.68752800       0.41895800       0.27337800
     3  I          0.10499200       0.81980200       0.79506200
     4  I          0.89500800       0.18019800       0.20493800
     5  S          0.48485500       0.37844400       0.68562300
     6  S          0.51514500       0.62155600       0.31437700
     7  N          0.77284180       0.42648130       0.72581900
     8  N          0.22715820       0.57351870       0.27418100
     9  N          0.70824180       0.25045130       0.79742100
    10  N          0.29175820       0.74954870       0.20257900
    11  C          0.67092000       0.35257150       0.74190110
    12  C          0.32908000       0.64742850       0.25809890
    13  C          0.91502000       0.41687160       0.78278120
    14  C          0.08498000       0.58312840       0.21721880
    15  H          0.87957300       0.40167700       0.84376900
    16  H          0.12042700       0.59832300       0.15623100
    17  H          0.94704500       0.49558800       0.77611600
    18  H          0.05295500       0.50441200       0.22388400
    19  C          0.06512000       0.31443170       0.76182130
    20  C          0.93488000       0.68556830       0.23817870
    21  H          0.15086100       0.30367800       0.80601200
    22  H          0.84913900       0.69632200       0.19398800
    23  H          0.11383900       0.33700200       0.70500700
    24  H          0.88616100       0.66299800       0.29499300
    25  C          0.01642000       0.19328160       0.75944120
    26  C          0.98358000       0.80671840       0.24055880
    27  H          0.97885800       0.18930100       0.70067500
    28  H          0.02114200       0.81069900       0.29932500
    29  H          0.11598600       0.12424900       0.77126500
    30  H          0.88401400       0.87575100       0.22873500
    31  C          0.87922000       0.17845160       0.82443120
    32  C          0.12078000       0.82154840       0.17556880
    33  H          0.88041500       0.09056600       0.83419500
    34  H          0.11958500       0.90943400       0.16580500
    35  H          0.90345000       0.20418100       0.88011300
    36  H          0.09655000       0.79581900       0.11988700
    37  C          0.74732000       0.52375160       0.65478110
    38  C          0.25268000       0.47624840       0.34521890
    39  C          0.70032000       0.64546160       0.67572120
    40  C          0.29968000       0.35453840       0.32427880
    41  C          0.67902000       0.73859170       0.60760130
    42  C          0.32098000       0.26140830       0.39239870
    43  H          0.64683200       0.82147300       0.62044100
    44  H          0.35316800       0.17852700       0.37955900
    45  C          0.70312000       0.71437170       0.52180120
    46  C          0.29688000       0.28562830       0.47819880
    47  C          0.75312000       0.59230170       0.50401120
    48  C          0.24688000       0.40769830       0.49598880
    49  H          0.77201100       0.57471400       0.44554400
    50  H          0.22798900       0.42528600       0.55445600
    51  C          0.77632000       0.49498160       0.56929120
    52  C          0.22368000       0.50501840       0.43070880
    53  C          0.67232000       0.68036170       0.76724120
    54  C          0.32768000       0.31963830       0.23275880
    55  H          0.65246700       0.61092800       0.80570200
    56  H          0.34753300       0.38907200       0.19429800
    57  H          0.57519800       0.75076600       0.76951800
    58  H          0.42480200       0.24923400       0.23048200
    59  H          0.77111500       0.70201700       0.78584900
    60  H          0.22888500       0.29798300       0.21415100
    61  C          0.67643000       0.81838190       0.45019140
    62  C          0.32357000       0.18161810       0.54980860
    63  H          0.77413700       0.85226600       0.44465900
    64  H          0.22586300       0.14773400       0.55534100
    65  H          0.57735000       0.88260000       0.46388000
    66  H          0.42265000       0.11740000       0.53612000
    67  H          0.66049900       0.78771400       0.39560700
    68  H          0.33950100       0.21228600       0.60439300
    69  C          0.82953000       0.36548170       0.54486130
    70  C          0.17047000       0.63451830       0.45513870
    71  H          0.73358300       0.32962600       0.55002900
    72  H          0.26641700       0.67037400       0.44997100
    73  H          0.91708800       0.31667500       0.58358100
    74  H          0.08291200       0.68332500       0.41641900
    75  H          0.87248200       0.36593100       0.48507800
    76  H          0.12751800       0.63406900       0.51492200
    77  C          0.57582000       0.20126160       0.83975110
    78  C          0.42418000       0.79873840       0.16024890
    79  C          0.54122000       0.09825160       0.81058110
    80  C          0.45878000       0.90174840       0.18941890
    81  C          0.42382000       0.04684160       0.85725120
    82  C          0.57618000       0.95315840       0.14274880
    83  H          0.39827700       0.97718100       0.83818400
    84  H          0.60172300       0.02281900       0.16181600
    85  C          0.34312000       0.09504170       0.93107120
    86  C          0.65688000       0.90495830       0.06892880
    87  C          0.38112000       0.19780170       0.95803120
    88  C          0.61888000       0.80219830       0.04196880
    89  H          0.32639200       0.23143400       0.00819000
    90  H          0.67360800       0.76856600      -0.00819000
    91  C          0.49732000       0.25261160       0.91329120
    92  C          0.50268000       0.74738840       0.08670880
    93  C          0.62612000       0.04315170       0.73114120
    94  C          0.37388000       0.95684830       0.26885880
    95  H          0.65190800       0.10784500       0.68996100
    96  H          0.34809200       0.89215500       0.31003900
    97  H          0.55195900       0.00387700       0.70427500
    98  H          0.44804100      -0.00387700       0.29572500
    99  H          0.72957400       0.98192600       0.74754400
   100  H          0.27042600       0.01807400       0.25245600
   101  C          0.22002000       0.03633190       0.98208130
   102  C          0.77998000       0.96366810       0.01791870
   103  H          0.27760000       0.97807000       0.02881800
   104  H          0.72240000       0.02193000       0.97118200
   105  H          0.17027700      -0.00702100       0.94383800
   106  H          0.82972300       0.00702100       0.05616200
   107  H          0.13208400       0.09981500       0.00672800
   108  H          0.86791600       0.90018500      -0.00672800
   109  C          0.53483000       0.36361180       0.94498130
   110  C          0.46517000       0.63638820       0.05501870
   111  H          0.65392400       0.34590000       0.95689200
   112  H          0.34607600       0.65410000       0.04310800
   113  H          0.46957600       0.38361900      -0.00196200
   114  H          0.53042400       0.61638100       0.00196200
   115  H          0.50512900       0.43331100       0.90056700
   116  H          0.49487100       0.56668900       0.09943300
   117  I          0.02911200       0.94288200       0.58243200
   118  I          0.97088800       0.05711800       0.41756800
   119  I          0.03703200       0.59671200       0.94795200
   120  I          0.96296800       0.40328800       0.05204800
