data_KETWIS
_symmetry_space_group_name_H-M    'P1'
_symmetry_Int_Tables_number       1
loop_
_symmetry_equiv_pos_site_id
_symmetry_equiv_pos_as_xyz
1 x,y,z
_cell_length_a                   12.79484
_cell_length_b                   5.83982
_cell_length_c                   13.28324
_cell_angle_alpha                90.0
_cell_angle_beta                 109.2511
_cell_angle_gamma                90.0
loop_
_atom_site_label
_atom_site_type_symbol
_atom_site_fract_x
_atom_site_fract_y
_atom_site_fract_z
     1  I          0.00334011       0.24750410       0.21307411
     2  I         -0.00334011       0.74750410       0.78692589
     3  F          0.69153130       0.36168000       0.40151130
     4  F          0.30846870       0.86168000       0.59848870
     5  F          0.00870130       0.79268000       0.35586130
     6  F         -0.00870130       0.29268000       0.64413870
     7  F          0.89128140       0.67248000       0.48212140
     8  F          0.10871860       0.17248000       0.51787860
     9  F          0.73641140       0.95678000       0.50940140
    10  F          0.26358860       0.45678000       0.49059860
    11  F          0.80303130       0.48098000       0.27068120
    12  F          0.19696870      -0.01902000       0.72931880
    13  C          0.76944190       0.21985000       0.38898190
    14  C          0.23055810       0.71985000       0.61101810
    15  C          0.82753190       0.27876000       0.32180180
    16  C          0.17246810       0.77876000       0.67819820
    17  C          0.90952000       0.13936000       0.30842000
    18  C          0.09048000       0.63936000       0.69158000
    19  C          0.92852000       0.93566000       0.36342000
    20  C          0.07148000       0.43566000       0.63658000
    21  C          0.87082000       0.87386000       0.42952000
    22  C          0.12918000       0.37386000       0.57048000
    23  C          0.79122000       0.01606000       0.44342000
    24  C          0.20878000       0.51606000       0.55658000
    25  S          0.62193500       0.86944200       0.16566500
    26  S          0.37806500       0.36944200       0.83433500
    27  S          0.36658700       0.15242900       0.28023700
    28  S          0.63341300       0.65242900       0.71976300
    29  N          0.87670190       0.89947000       0.91421810
    30  N          0.12329810       0.39947000       0.08578190
    31  C          0.41913000       0.79686000       0.39562000
    32  C          0.58087000       0.29686000       0.60438000
    33  H          0.42033000       0.68136000       0.44632000
    34  H          0.57967000       0.18136000       0.55368000
    35  C          0.49342000       0.79936000       0.33612000
    36  C          0.50658000       0.29936000       0.66388000
    37  H          0.54812000       0.68616000       0.34092000
    38  H          0.45188000       0.18616000       0.65908000
    39  C          0.47482000      -0.01004000       0.26992000
    40  C          0.52518000       0.48996000       0.73008000
    41  C          0.53172000       0.05754000       0.19562000
    42  C          0.46828000       0.55754000       0.80438000
    43  C          0.65092000       0.06384000       0.08022000
    44  C          0.34908000       0.56384000       0.91978000
    45  C          0.72812000       0.00654000       0.02352000
    46  C          0.27188000       0.50654000       0.97648000
    47  C          0.79152000       0.80656000       0.04442000
    48  C          0.20848000       0.30656000       0.95558000
    49  H          0.78512000       0.70106000       0.09652000
    50  H          0.21488000       0.20106000       0.90348000
    51  C          0.86302000       0.76345000      -0.01102000
    52  C          0.13698000       0.26345000       0.01102000
    53  H          0.90562000       0.62685000       0.00542000
    54  H          0.09438000       0.12685000      -0.00542000
    55  C          0.34743000       0.97135000       0.37373000
    56  C          0.65257000       0.47135000       0.62627000
    57  H          0.29223000      -0.00775000       0.40633000
    58  H          0.70777000       0.49225000       0.59367000
    59  C          0.59316180       0.26205000       0.07628180
    60  C          0.40683820       0.76205000       0.92371820
    61  H          0.59778180       0.38955000       0.03355180
    62  H          0.40221820       0.88955000       0.96644820
    63  C          0.52584190       0.25915000       0.14183180
    64  C          0.47415810       0.75915000       0.85816820
    65  H          0.48103190       0.38465000       0.14789180
    66  H          0.51896810       0.88465000       0.85210820
    67  C          0.81522000       0.09084000       0.89318000
    68  C          0.18478000       0.59084000       0.10682000
    69  H          0.82312000       0.19144000       0.83988000
    70  H          0.17688000       0.69144000       0.16012000
    71  C          0.74152000       0.14984000       0.94418000
    72  C          0.25848000       0.64984000       0.05582000
    73  H          0.69972000       0.28724000       0.92568000
    74  H          0.30028000       0.78724000       0.07432000
