data_KETXAM
_symmetry_space_group_name_H-M    'P1'
_symmetry_Int_Tables_number       1
loop_
_symmetry_equiv_pos_site_id
_symmetry_equiv_pos_as_xyz
1 x,y,z
_cell_length_a                   9.79403
_cell_length_b                   5.349701
_cell_length_c                   20.51195
_cell_angle_alpha                90.0
_cell_angle_beta                 101.6733
_cell_angle_gamma                90.0
loop_
_atom_site_label
_atom_site_type_symbol
_atom_site_fract_x
_atom_site_fract_y
_atom_site_fract_z
     1  I          0.62398200       0.46696300       0.40701200
     2  I          0.37601800       0.96696300       0.09298800
     3  I          0.37601800       0.53303700       0.59298800
     4  I          0.62398200       0.03303700       0.90701200
     5  F          0.35218160       0.11083000       0.37691700
     6  F          0.64781840       0.61083000       0.12308300
     7  F          0.64781840       0.88917000       0.62308300
     8  F          0.35218160       0.38917000       0.87691700
     9  F          0.26126160       0.75327000       0.44727800
    10  F          0.73873840       0.25327000       0.05272200
    11  F          0.73873840       0.24673000       0.55272200
    12  F          0.26126160       0.74673000       0.94727800
    13  C          0.54912000       0.18814000       0.46221110
    14  C          0.45088000       0.68814000       0.03778890
    15  C          0.45088000       0.81186000       0.53778890
    16  C          0.54912000       0.31186000       0.96221110
    17  C          0.42713000       0.05955000       0.43829120
    18  C          0.57287000       0.55955000       0.06170880
    19  C          0.57287000       0.94045000       0.56170880
    20  C          0.42713000       0.44045000       0.93829120
    21  C          0.37942000       0.87615000       0.47488120
    22  C          0.62058000       0.37615000       0.02511880
    23  C          0.62058000       0.12385000       0.52511880
    24  C          0.37942000       0.62385000       0.97488120
    25  N          0.87992000       0.90954000       0.42676100
    26  N          0.12008000       0.40954000       0.07323900
    27  N          0.12008000       0.09046000       0.57323900
    28  N          0.87992000       0.59046000       0.92676100
    29  N          0.73242000       0.84244000       0.32636100
    30  N          0.26758000       0.34244000       0.17363900
    31  N          0.26758000       0.15756000       0.67363900
    32  N          0.73242000       0.65756000       0.82636100
    33  C          0.97983000       0.04085000       0.46445120
    34  C          0.02017000       0.54085000       0.03554880
    35  C          0.02017000       0.95915000       0.53554880
    36  C          0.97983000       0.45915000       0.96445120
    37  C          0.04633000       0.24625000       0.44131130
    38  C          0.95367000       0.74625000       0.05868870
    39  C          0.95367000       0.75375000       0.55868870
    40  C          0.04633000       0.25375000       0.94131130
    41  H          0.11550000       0.33410000       0.47000000
    42  H          0.88450000       0.83410000       0.03000000
    43  H          0.88450000       0.66590000       0.53000000
    44  H          0.11550000       0.16590000       0.97000000
    45  C          0.00773000       0.31405000       0.37630130
    46  C         -0.00773000       0.81405000       0.12369870
    47  C         -0.00773000       0.68595000       0.62369870
    48  C          0.00773000       0.18595000       0.87630130
    49  H          0.05140000       0.44740000       0.35980000
    50  H          0.94860000       0.94740000       0.14020000
    51  H          0.94860000       0.55260000       0.64020000
    52  H          0.05140000       0.05260000       0.85980000
    53  C          0.90093000       0.18055000       0.33396120
    54  C          0.09907000       0.68055000       0.16603880
    55  C          0.09907000       0.81945000       0.66603880
    56  C          0.90093000       0.31945000       0.83396120
    57  C          0.84723000       0.23946000       0.26630130
    58  C          0.15277000       0.73946000       0.23369870
    59  C          0.15277000       0.76054000       0.73369870
    60  C          0.84723000       0.26054000       0.76630130
    61  H          0.88490000       0.37010000       0.24580000
    62  H          0.11510000       0.87010000       0.25420000
    63  H          0.11510000       0.62990000       0.75420000
    64  H          0.88490000       0.12990000       0.74580000
    65  C          0.74013000       0.10266000       0.23194140
    66  C          0.25987000       0.60266000       0.26805860
    67  C          0.25987000       0.89734000       0.76805860
    68  C          0.74013000       0.39734000       0.73194140
    69  H          0.70280000       0.13890000       0.18760000
    70  H          0.29720000       0.63890000       0.31240000
    71  H          0.29720000       0.86110000       0.81240000
    72  H          0.70280000       0.36110000       0.68760000
    73  C          0.68643000       0.90646000       0.26389140
    74  C          0.31357000       0.40646000       0.23610860
    75  C          0.31357000       0.09354000       0.73610860
    76  C          0.68643000       0.59354000       0.76389140
    77  H          0.61300000       0.81460000       0.23930000
    78  H          0.38700000       0.31460000       0.26070000
    79  H          0.38700000       0.18540000       0.76070000
    80  H          0.61300000       0.68540000       0.73930000
    81  C          0.83933000      -0.02025000       0.36185130
    82  C          0.16067000       0.47975000       0.13814870
    83  C          0.16067000       0.02025000       0.63814870
    84  C          0.83933000       0.52025000       0.86185130
