data_KETXAL
_symmetry_space_group_name_H-M    'P1'
_symmetry_Int_Tables_number       1
loop_
_symmetry_equiv_pos_site_id
_symmetry_equiv_pos_as_xyz
1 x,y,z
_cell_length_a                   9.01218
_cell_length_b                   10.02248
_cell_length_c                   24.3242
_cell_angle_alpha                81.8383
_cell_angle_beta                 79.5653
_cell_angle_gamma                89.1274
loop_
_atom_site_label
_atom_site_type_symbol
_atom_site_fract_x
_atom_site_fract_y
_atom_site_fract_z
     1  I          0.88874200       0.33910200       0.62766200
     2  I          0.11125800       0.66089800       0.37233800
     3  F          0.22343000       0.66612000       0.86382900
     4  F          0.77657000       0.33388000       0.13617100
     5  F          0.18563000       0.55502000       0.94754900
     6  F          0.81437000       0.44498000       0.05245100
     7  F          0.01573000       0.68752000       0.92064100
     8  F          0.98427000       0.31248000       0.07935900
     9  F          0.83764000       0.16433000      -0.00551900
    10  F          0.16236000       0.83567000       0.00551900
    11  F          0.74643000       0.09183000       0.92834110
    12  F          0.25357000       0.90817000       0.07165890
    13  F          0.97033000       0.04483000       0.93928110
    14  F          0.02967000       0.95517000       0.06071890
    15  C          0.97104000       0.38783000       0.80654130
    16  C          0.02896000       0.61217000       0.19345870
    17  C          0.11924000       0.59814000       0.90358140
    18  C          0.88076000       0.40186000       0.09641860
    19  C          0.93554000       0.37633000       0.70300140
    20  C          0.06446000       0.62367000       0.29699860
    21  C          0.04974000       0.48393000       0.88228140
    22  C          0.95026000       0.51607000       0.11771860
    23  C          0.03934000       0.49353000       0.82565140
    24  C          0.96066000       0.50647000       0.17434860
    25  H          0.07800000       0.57080000       0.80000000
    26  H          0.92200000       0.42920000       0.20000000
    27  C         -0.00506000       0.37214000       0.92063140
    28  C          0.00506000       0.62786000       0.07936860
    29  H          0.00390000       0.36640000       0.95920000
    30  H         -0.00390000       0.63360000       0.04080000
    31  C          0.91474000       0.27543000       0.84547140
    32  C          0.08526000       0.72457000       0.15452860
    33  H          0.86800000       0.20340000       0.83310000
    34  H          0.13200000       0.79660000       0.16690000
    35  C          0.95544000       0.38953000       0.74888150
    36  C          0.04456000       0.61047000       0.25111850
    37  C          0.86815000       0.14404000       0.94190160
    38  C          0.13185000       0.85596000       0.05809840
    39  C          0.92644000       0.26844000       0.90163140
    40  C          0.07356000       0.73156000       0.09836860
    41  I          0.62315200       0.65700200       0.36750200
    42  I          0.37684800       0.34299800       0.63249800
    43  F          0.47753000       0.29762000       0.08516100
    44  F          0.52247000       0.70238000       0.91483900
    45  F          0.30953000       0.42562000       0.05368900
    46  F          0.69047000       0.57438000       0.94631100
    47  F          0.26773000       0.32742000       0.13957900
    48  F          0.73227000       0.67258000       0.86042100
    49  F          0.62414000       0.95413000       0.06903110
    50  F          0.37586000       0.04587000       0.93096890
    51  F          0.55613000       0.85792000       0.00520100
    52  F          0.44387000       0.14208000      -0.00520100
    53  F          0.77253000       0.81873000       0.02489130
    54  F          0.22747000       0.18127000       0.97510870
    55  C          0.44384000       0.50843000       0.11697140
    56  C          0.55616000       0.49157000       0.88302860
    57  C          0.53374000       0.61143000       0.18866140
    58  C          0.46626000       0.38857000       0.81133860
    59  C          0.58724000       0.72104000       0.14751160
    60  C          0.41276000       0.27896000       0.85248840
    61  H          0.63660000       0.79440000       0.15760000
    62  H          0.36340000       0.20560000       0.84240000
    63  C          0.37404000       0.39064000       0.09871140
    64  C          0.62596000       0.60936000       0.90128860
    65  C          0.56834000       0.72264000       0.09239150
    66  C          0.43166000       0.27736000       0.90760850
    67  C          0.46154000       0.50383000       0.17252140
    68  C          0.53846000       0.49617000       0.82747860
    69  H          0.42510000       0.42830000       0.19960000
    70  H          0.57490000       0.57170000       0.80040000
    71  C          0.49454000       0.61784000       0.07653140
    72  C          0.50546000       0.38216000       0.92346860
    73  H          0.47910000       0.62090000       0.03880000
    74  H          0.52090000       0.37910000       0.96120000
    75  C          0.55384000       0.61253000       0.24601150
    76  C          0.44616000       0.38747000       0.75398850
    77  C          0.57504000       0.62394000       0.29205150
    78  C          0.42496000       0.37606000       0.70794850
    79  C          0.62955000       0.83964000       0.04819170
    80  C          0.37045000       0.16036000       0.95180830
    81  S          0.57140900       0.08707800       0.36891300
    82  S          0.42859100       0.91292200       0.63108700
    83  N          0.81393000       0.28553000       0.52828120
    84  N          0.18607000       0.71447000       0.47171880
    85  C          0.40714000       0.95217000       0.28504140
    86  C          0.59286000       0.04783000       0.71495860
    87  H          0.39180000       0.90290000       0.32200000
    88  H          0.60820000       0.09710000       0.67800000
    89  O          0.48383000       0.11053000       0.21235120
    90  O          0.51617000       0.88947000       0.78764880
    91  C          0.65954000       0.17264000       0.47866140
    92  C          0.34046000       0.82736000       0.52133860
    93  C          0.87844000       0.35354000       0.47839150
    94  C          0.12156000       0.64646000       0.52160850
    95  C          0.65504000       0.25573000       0.27926140
    96  C          0.34496000       0.74427000       0.72073860
    97  H          0.66780000       0.29990000       0.24150000
    98  H          0.33220000       0.70010000       0.75850000
    99  C          0.57184000       0.13943000       0.29839140
   100  C          0.42816000       0.86057000       0.70160860
   101  C          0.70634000       0.19654000       0.52725140
   102  C          0.29366000       0.80346000       0.47274860
   103  H          0.65920000       0.14660000       0.56210000
   104  H          0.34080000       0.85340000       0.43790000
   105  C          0.68324000       0.22363000       0.37333130
   106  C          0.31676000       0.77637000       0.62666870
   107  C          0.84034000       0.33673000       0.42711140
   108  C          0.15966000       0.66327000       0.57288860
   109  C          0.72664000       0.24293000       0.42632130
   110  C          0.27336000       0.75707000       0.57367870
   111  C          0.71924000       0.30223000       0.32169140
   112  C          0.28076000       0.69777000       0.67830860
   113  H          0.78160000       0.38050000       0.31520000
   114  H          0.21840000       0.61950000       0.68480000
   115  C          0.48884000       0.06523000       0.26685150
   116  C          0.51116000       0.93477000       0.73314850
   117  C          0.34825000       0.92046000       0.23842000
   118  C          0.65175000       0.07954000       0.76158000
   119  H          0.28600000       0.84500000       0.23810000
   120  H          0.71400000       0.15500000       0.76190000
   121  C          0.39525000       0.01505000       0.19524170
   122  C          0.60475000       0.98495000       0.80475830
   123  H          0.37280000       0.01800000       0.15840000
   124  H          0.62720000       0.98200000       0.84160000
   125  H          0.88640000       0.38830000       0.39311400
   126  H          0.11360000       0.61170000       0.60688600
   127  H          0.95440000       0.42330000       0.48011400
   128  H          0.04560000       0.57670000       0.51988600
   129  H          0.58150000       0.11340000       0.48121700
   130  H          0.41850000       0.88660000       0.51878300
   131  S          0.91907100       0.91687800       0.62972300
   132  S          0.08092900       0.08312200       0.37027700
   133  N          0.69643000       0.71163000       0.46698130
   134  N          0.30357000       0.28837000       0.53301870
   135  O          0.01214000       0.88153000       0.78564130
   136  O         -0.01214000       0.11847000       0.21435870
   137  C          0.09204000       0.04273000       0.71423140
   138  C          0.90796000       0.95727000       0.28576860
   139  H          0.10840000       0.09390000       0.67760000
   140  H          0.89160000       0.90610000       0.32240000
   141  C          0.76694000       0.76093000       0.57058140
   142  C          0.23306000       0.23907000       0.42941860
   143  C          0.92354000       0.85943000       0.69945140
   144  C          0.07646000       0.14057000       0.30054860
   145  C          0.77464000       0.82154000       0.47098140
   146  C          0.22536000       0.17846000       0.52901860
   147  H          0.80580000       0.88350000       0.43760000
   148  H          0.19420000       0.11650000       0.56240000
   149  C          0.81234000       0.85024000       0.52047140
   150  C          0.18766000       0.14976000       0.47952860
   151  C          0.80894000       0.78063000       0.62409140
   152  C          0.19106000       0.21937000       0.37590860
   153  C          0.84174000       0.74153000       0.71754140
   154  C          0.15826000       0.25847000       0.28245860
   155  H          0.83040000       0.69490000       0.75490000
   156  H          0.16960000       0.30510000       0.24510000
   157  C          0.68304000       0.64754000       0.56693150
   158  C          0.31696000       0.35246000       0.43306850
   159  H          0.64690000       0.58500000       0.59970000
   160  H          0.35310000       0.41500000       0.40030000
   161  C          0.15195000       0.06964000       0.76162000
   162  C          0.84805000       0.93036000       0.23838000
   163  H          0.21510000       0.14380000       0.76290000
   164  H          0.78490000       0.85620000       0.23710000
   165  C          0.77674000       0.69753000       0.67494140
   166  C          0.22326000       0.30247000       0.32505860
   167  H          0.71650000       0.61800000       0.68070000
   168  H          0.28350000       0.38200000       0.31930000
   169  C          0.00764000       0.93063000       0.73141150
   170  C         -0.00764000       0.06937000       0.26858850
   171  C          0.65344000       0.62774000       0.51458160
   172  C          0.34656000       0.37226000       0.48541840
   173  H          0.59850000       0.54880000       0.51260000
   174  H          0.40150000       0.45120000       0.48740000
   175  C          0.10375000       0.97245000       0.80395170
   176  C          0.89625000       0.02755000       0.19604830
   177  H          0.12720000       0.96540000       0.84080000
   178  H          0.87280000       0.03460000       0.15920000
   179  H          0.86450000       0.93340000       0.52071700
   180  H          0.13550000       0.06660000       0.47928300
