data_KEZZIY
_symmetry_space_group_name_H-M    'P1'
_symmetry_Int_Tables_number       1
loop_
_symmetry_equiv_pos_site_id
_symmetry_equiv_pos_as_xyz
1 x,y,z
_cell_length_a                   8.4973
_cell_length_b                   8.5513
_cell_length_c                   11.2144
_cell_angle_alpha                68.193
_cell_angle_beta                 89.594
_cell_angle_gamma                80.353
loop_
_atom_site_label
_atom_site_type_symbol
_atom_site_fract_x
_atom_site_fract_y
_atom_site_fract_z
     1  N          0.61908170       0.32252180       0.91202130
     2  N          0.38091830       0.67747820       0.08797870
     3  S          0.60265500       0.51916500       0.79911400
     4  S          0.39734500       0.48083500       0.20088600
     5  S          0.79478500       0.19040600       0.94841400
     6  S          0.20521500       0.80959400       0.05158600
     7  O          0.45361160       0.61068170       0.81725130
     8  O          0.54638840       0.38931830       0.18274870
     9  O          0.74645170       0.57900170       0.81175130
    10  O          0.25354830       0.42099830       0.18824870
    11  O          0.76061180       0.02532170       0.02117150
    12  O          0.23938820       0.97467830       0.97882850
    13  O          0.87682160       0.21448180       0.83365130
    14  O          0.12317840       0.78551820       0.16634870
    15  C          0.59042000       0.49612000       0.65155160
    16  C          0.40958000       0.50388000       0.34844840
    17  H          0.50610000       0.43060000       0.65160000
    18  H          0.49390000       0.56940000       0.34840000
    19  H          0.69300000       0.43530000       0.63770000
    20  H          0.30700000       0.56470000       0.36230000
    21  H          0.56530000       0.60930000       0.58240000
    22  H          0.43470000       0.39070000       0.41760000
    23  C          0.89923000       0.25713000       0.04932000
    24  C          0.10077000       0.74287000       0.95068000
    25  H          0.00270000       0.18080000       0.07860000
    26  H         -0.00270000       0.81920000       0.92140000
    27  H          0.83700000       0.25370000       0.12390000
    28  H          0.16300000       0.74630000       0.87610000
    29  H          0.91650000       0.37430000       0.00200000
    30  H          0.08350000       0.62570000      -0.00200000
    31  C          0.47182000       0.25233000       0.95492180
    32  C          0.52818000       0.74767000       0.04507820
    33  H          0.43450000       0.20970000       0.89230000
    34  H          0.56550000       0.79030000       0.10770000
    35  H          0.38890000       0.34260000       0.96190000
    36  H          0.61110000       0.65740000       0.03810000
    37  H          0.49450000       0.15830000       0.03900000
    38  H          0.50550000       0.84170000       0.96100000
    39  O          0.34920140       0.23061150       0.66528110
    40  O          0.65079860       0.76938850       0.33471890
    41  O          0.63554140       0.15455150       0.55012110
    42  O          0.36445860       0.84544850       0.44987890
    43  O          0.18135150       0.57502150       0.55974110
    44  O          0.81864850       0.42497850       0.44025890
    45  C          0.13092000       0.44402000       0.66559180
    46  C          0.86908000       0.55598000       0.33440820
    47  H          0.01320000       0.46890000       0.66900000
    48  H         -0.01320000       0.53110000       0.33100000
    49  H          0.18040000       0.43890000       0.74690000
    50  H          0.81960000       0.56110000       0.25310000
    51  C          0.17972000       0.27642000       0.65028190
    52  C          0.82028000       0.72358000       0.34971810
    53  H          0.13090000       0.18700000       0.71580000
    54  H          0.86910000       0.81300000       0.28420000
    55  H          0.14200000       0.28610000       0.56400000
    56  H          0.85800000       0.71390000       0.43600000
    57  C          0.40512000       0.06932000       0.65712180
    58  C          0.59488000       0.93068000       0.34287820
    59  H          0.36400000       0.06840000       0.57500000
    60  H          0.63600000       0.93160000       0.42500000
    61  H          0.36630000       0.97800000       0.72880000
    62  H          0.63370000       0.02200000       0.27120000
    63  C          0.58402000       0.03782000       0.66415180
    64  C          0.41598000       0.96218000       0.33584820
    65  H          0.62490000       0.05440000       0.74030000
    66  H          0.37510000       0.94560000       0.25970000
    67  H          0.62560000       0.91870000       0.67240000
    68  H          0.37440000       0.08130000       0.32760000
    69  C          0.80382000       0.13082000       0.54623180
    70  C          0.19618000       0.86918000       0.45376820
    71  H          0.84560000       0.01550000       0.54630000
    72  H          0.15440000       0.98450000       0.45370000
    73  H          0.85160000       0.13980000       0.62320000
    74  H          0.14840000       0.86020000       0.37680000
    75  C          0.15172000       0.73522000       0.57321180
    76  C          0.84828000       0.26478000       0.42678820
    77  H          0.03710000       0.76510000       0.58690000
    78  H          0.96290000       0.23490000       0.41310000
    79  H          0.21560000       0.72920000       0.64870000
    80  H          0.78440000       0.27080000       0.35130000
