data_KICPEU
_symmetry_space_group_name_H-M    'P1'
_symmetry_Int_Tables_number       1
loop_
_symmetry_equiv_pos_site_id
_symmetry_equiv_pos_as_xyz
1 x,y,z
_cell_length_a                   10.77174
_cell_length_b                   11.88255
_cell_length_c                   13.49576
_cell_angle_alpha                86.6932
_cell_angle_beta                 79.0592
_cell_angle_gamma                71.4732
loop_
_atom_site_label
_atom_site_type_symbol
_atom_site_fract_x
_atom_site_fract_y
_atom_site_fract_z
     1  O          0.64646140       0.58631140       0.38181120
     2  H          0.66276600       0.51539000       0.36496900
     3  O          0.39656140       0.56048140       0.47697110
     4  H          0.46808500       0.52014800       0.49500600
     5  O          0.58161140       0.39940130       0.33010110
     6  H          0.61871000       0.34941300       0.28345500
     7  O          0.32847160       0.37465150       0.41872120
     8  H          0.31511400       0.42979200       0.45957200
     9  C          0.52632000       0.65729190       0.35105160
    10  C          0.42246190       0.58892190       0.37256150
    11  H          0.33722600       0.64396400       0.35600800
    12  C          0.46119190       0.47871180       0.30565150
    13  H          0.47912800       0.50313400       0.23355000
    14  C          0.35182000       0.41677190       0.31827150
    15  C          0.48022000       0.77292000       0.41173160
    16  C          0.57393000       0.82712000       0.42092000
    17  H          0.66509200       0.78959900       0.39345300
    18  C          0.53594000       0.93553000       0.46983000
    19  H          0.60154300       0.97097300       0.47638000
    20  C          0.40484000      -0.00787000       0.50882000
    21  H          0.37924000       0.06683400       0.54157100
    22  C          0.31153000       0.94003000       0.50013000
    23  H          0.22045400       0.97848400       0.52698900
    24  C          0.34883000       0.83063000       0.45192000
    25  H          0.28273300       0.79518900       0.44669700
    26  C          0.54892000       0.68642190       0.23790160
    27  C          0.45153000       0.77332000       0.19802190
    28  H          0.37247500       0.81665500       0.24165000
    29  C          0.46714000       0.79803000       0.09572000
    30  H          0.39888900       0.85714900       0.06938400
    31  C          0.58274000       0.73593000       0.03222000
    32  H          0.59473400       0.75279900       0.96199500
    33  C          0.67953000       0.65013000       0.07092000
    34  H          0.75837000       0.60713400       0.02694600
    35  C          0.66443000       0.62462000       0.17344190
    36  H          0.73280400       0.56516500       0.19930900
    37  C          0.22112000       0.50129190       0.29098160
    38  C          0.21672000       0.58962000       0.21777170
    39  H          0.29719000       0.60123400       0.18331300
    40  C          0.09612000       0.66072000       0.19482000
    41  H          0.09426900       0.72060400       0.14482300
    42  C          0.97818000       0.64442000       0.24452000
    43  H          0.89537600       0.69372600       0.22956800
    44  C          0.98158000       0.55683000       0.31542000
    45  H          0.90077400       0.54483000       0.34866600
    46  C          0.10212000       0.48502000       0.33922000
    47  H          0.10295800       0.42471400       0.38868300
    48  C          0.40122000       0.30762000       0.24900170
    49  C          0.42182000       0.32022000       0.14435180
    50  H          0.40467800       0.39740000       0.11576900
    51  C          0.46673000       0.22193000       0.08142000
    52  H          0.47978400       0.23223600       0.01028600
    53  C          0.49263000       0.10923000       0.12153000
    54  H          0.52369000       0.04170500       0.07839300
    55  C          0.47283000       0.09553000       0.22463000
    56  H          0.48996200       0.01808400       0.25265300
    57  C          0.42773000       0.19422000       0.28842000
    58  H          0.41517400       0.18335200       0.35949800
    59  O          0.42754160       0.30124170       0.63762130
    60  H          0.46482700       0.27312300       0.57990300
    61  O          0.60941150       0.43361130       0.57729110
    62  H          0.60167600       0.48857100       0.61674400
    63  O          0.63302150       0.22512130       0.47788110
    64  H          0.62412100       0.28490600       0.44023800
    65  O          0.83240150       0.34583130       0.43337120
    66  H          0.77224700       0.40078600       0.46696400
    67  C          0.52582000       0.29672000       0.69584160
    68  C          0.64776190       0.32239170       0.62759150
    69  H          0.71235900       0.32477200       0.67113700
    70  C          0.71932000       0.22695170       0.54595150
    71  H          0.73900000       0.14859600       0.58121800
    72  C          0.85412000       0.23828180       0.49094150
    73  C          0.46042000       0.39153190       0.77813160
    74  C          0.53253000       0.42593000       0.83892000
    75  H          0.62637300       0.39047000       0.82867400
    76  C          0.47173000       0.50993000       0.91372190
    77  H          0.52373100       0.53125900       0.95434300
    78  C          0.33723000       0.56273000       0.92982000
    79  H          0.29555300       0.62300200       0.97956900
    80  C          0.26293000       0.52733000       0.87323000
    81  H          0.16876000       0.56089500       0.88611300
    82  C          0.32383000       0.44313000       0.79712000
    83  H          0.27098800       0.42068800       0.75785300
    84  C          0.57572000       0.17312000       0.74282170
    85  C          0.67974000       0.14383000       0.79642000
    86  H          0.71414000       0.20397500       0.81132000
    87  C          0.73424000       0.02883000       0.82843000
    88  H          0.80499400       0.01120600       0.86524600
    89  C          0.68764000       0.94157000       0.80793000
    90  H          0.72566700       0.86268100       0.82955200
    91  C          0.58565000       0.96787000       0.75575000
    92  H          0.55320300       0.90632500       0.74079900
    93  C          0.52673000       0.08463000       0.72333000
    94  H          0.45409800       0.10185200       0.68843600
    95  C          0.94232000       0.23532000       0.56845160
    96  C          0.99163000       0.32742000       0.57751190
    97  H          0.96633900       0.39699100       0.53799900
    98  C          0.07833000       0.31903000       0.64442000
    99  H          0.11391500       0.38180300       0.64858500
   100  C          0.11233000       0.22153000       0.70362000
   101  H          0.17169300       0.21619100       0.74878200
   102  C          0.06033000       0.13003000       0.69812000
   103  H          0.08145000       0.06313000       0.74118100
   104  C          0.97732000       0.13572000       0.62979190
   105  H          0.94414800       0.07149800       0.62465100
   106  C          0.93062000       0.13866190       0.41443150
   107  C          0.89263000       0.03982000       0.40448190
   108  H          0.81420300       0.03173800       0.44604500
   109  C          0.96853000       0.95158000       0.33382000
   110  H          0.94142400       0.88403300       0.32775700
   111  C          0.08193000       0.96177000       0.27322000
   112  H          0.13257400       0.90224500       0.22459100
   113  C          0.12153000       0.05893000       0.28342000
   114  H          0.20072300       0.06584900       0.24231300
   115  C          0.04642000       0.14732000       0.35357180
   116  H          0.07470800       0.21412900       0.35982200
   117  N          0.60203000       0.64202000       0.66393000
   118  C          0.72663000       0.64452000       0.68132000
   119  C          0.81413000       0.67882000       0.60562000
   120  H          0.78818800       0.70314100       0.54230500
   121  C          0.93743000       0.67833000       0.62002000
   122  C          0.97423000       0.64123000       0.71252000
   123  H          0.05860200       0.64072900       0.72419100
   124  C          0.88994000       0.60523000       0.78692000
   125  H          0.91726900       0.57872800       0.84944500
   126  C          0.76533000       0.60653000       0.77302000
   127  H          0.70732700       0.58180300       0.82542400
   128  C          0.03095000       0.72034000       0.53873000
   129  H          0.01561200       0.70524900       0.47206400
   130  H          0.12326800       0.67732800       0.54456800
   131  H          0.01403400       0.80562000       0.54685600
   132  H          0.54330000       0.64830000       0.71820000
   133  H          0.56740000       0.69330000       0.62330000
   134  N          0.73912000       0.22462000       0.19805170
   135  C          0.81932000       0.26352000       0.11689180
   136  C          0.92093000       0.30082000       0.13582000
   137  H          0.93498800       0.30123300       0.20317800
   138  C          0.00343000       0.33773000       0.05802000
   139  C          0.97963000       0.33943000       0.96048000
   140  H          0.03546400       0.36416900       0.90643300
   141  C          0.87643000       0.30573000       0.94158000
   142  H          0.85993800       0.30867400       0.87462400
   143  C          0.79533000       0.26723000       0.01932000
   144  H          0.72384800       0.24350100       0.00573900
   145  C          0.11934000       0.37135000       0.08023000
   146  H          0.19560300       0.34351200       0.02517400
   147  H          0.14333200       0.33439100       0.14361800
   148  H          0.09417300       0.45778300       0.08623800
   149  H          0.78630000       0.17830000       0.23920000
   150  H          0.69150000       0.18250000       0.18240000
   151  N          0.27756000       0.05914000       0.95584000
   152  C          0.20163000       0.98682000       0.93722000
   153  C          0.08453000      -0.01008000       0.00318180
   154  H          0.05389200       0.04216500       0.05959700
   155  C          0.01223000       0.91673000       0.98662000
   156  C          0.05703000       0.84032000       0.90413000
   157  H          0.00764300       0.79025500       0.89279100
   158  C          0.17413000       0.83712000       0.83812000
   159  H          0.20470700       0.78493300       0.78169000
   160  C          0.24643000       0.91043000       0.85462000
   161  H          0.32636600       0.90822800       0.80954200
   162  C          0.88564000       0.92165000       0.05764000
   163  H          0.81559400      -0.00552300       0.04573500
   164  H          0.89962900       0.92080400       0.12730500
   165  H          0.85897300       0.85256400       0.04608800
