data_KIDBEI
_symmetry_space_group_name_H-M    'P1'
_symmetry_Int_Tables_number       1
loop_
_symmetry_equiv_pos_site_id
_symmetry_equiv_pos_as_xyz
1 x,y,z
_cell_length_a                   7.007301
_cell_length_b                   15.65513
_cell_length_c                   20.86764
_cell_angle_alpha                90.0
_cell_angle_beta                 91.7272
_cell_angle_gamma                90.0
loop_
_atom_site_label
_atom_site_type_symbol
_atom_site_fract_x
_atom_site_fract_y
_atom_site_fract_z
     1  I          0.80960400       0.37502200       0.35422200
     2  I          0.19039600       0.87502200       0.14577800
     3  I          0.19039600       0.62497800       0.64577800
     4  I          0.80960400       0.12497800       0.85422200
     5  I          0.80477600       0.69455200       0.19198200
     6  I          0.19522400       0.19455200       0.30801800
     7  I          0.19522400       0.30544800       0.80801800
     8  I          0.80477600       0.80544800       0.69198200
     9  I          0.82285500       0.34574200       0.06669200
    10  I          0.17714500       0.84574200       0.43330800
    11  I          0.17714500       0.65425800       0.93330800
    12  I          0.82285500       0.15425800       0.56669200
    13  F          0.80945000       0.57082000       0.31102140
    14  F          0.19055000       0.07082000       0.18897860
    15  F          0.19055000       0.42918000       0.68897860
    16  F          0.80945000       0.92918000       0.81102140
    17  F          0.80595000       0.54932000       0.08650140
    18  F          0.19405000       0.04932000       0.41349860
    19  F          0.19405000       0.45068000       0.91349860
    20  F          0.80595000       0.95068000       0.58650140
    21  F          0.82415000       0.30148190       0.21272150
    22  F          0.17585000       0.80148190       0.28727850
    23  F          0.17585000       0.69851810       0.78727850
    24  F          0.82415000       0.19851810       0.71272150
    25  C          0.81727000       0.43463000       0.26452000
    26  C          0.18273000       0.93463000       0.23548000
    27  C          0.18273000       0.56537000       0.73548000
    28  C          0.81727000       0.06537000       0.76452000
    29  C          0.81107000       0.52213000       0.25773000
    30  C          0.18893000       0.02213000       0.24227000
    31  C          0.18893000       0.47787000       0.74227000
    32  C          0.81107000       0.97787000       0.75773000
    33  C          0.80788000       0.56273000       0.19862000
    34  C          0.19212000       0.06273000       0.30138000
    35  C          0.19212000       0.43727000       0.80138000
    36  C          0.80788000       0.93727000       0.69862000
    37  C          0.81137000       0.51134000       0.14422000
    38  C          0.18863000       0.01134000       0.35578000
    39  C          0.18863000       0.48866000       0.85578000
    40  C          0.81137000       0.98866000       0.64422000
    41  C          0.81927000       0.42343000       0.14752000
    42  C          0.18073000       0.92343000       0.35248000
    43  C          0.18073000       0.57657000       0.85248000
    44  C          0.81927000       0.07657000       0.64752000
    45  C          0.81927000       0.38703000       0.20823000
    46  C          0.18073000       0.88703000       0.29177000
    47  C          0.18073000       0.61297000       0.79177000
    48  C          0.81927000       0.11297000       0.70823000
    49  S          0.76937180       0.42931800       0.54423600
    50  S          0.23062820       0.92931800       0.95576400
    51  S          0.23062820       0.57068200       0.45576400
    52  S          0.76937180       0.07068200       0.04423600
    53  O          0.76645000       0.28882000       0.46872170
    54  O          0.23355000       0.78882000       0.03127830
    55  O          0.23355000       0.71118000       0.53127830
    56  O          0.76645000       0.21118000       0.96872170
    57  N          0.59107000       0.30413000       0.48772000
    58  N          0.40893000       0.80413000       0.01228000
    59  N          0.40893000       0.69587000       0.51228000
    60  N          0.59107000       0.19587000       0.98772000
    61  C          0.44598000       0.25394000       0.46623000
    62  C          0.55402000       0.75394000       0.03377000
    63  C          0.55402000       0.74606000       0.53377000
    64  C          0.44598000       0.24606000       0.96623000
    65  H          0.46862300       0.21047100       0.43559300
    66  H          0.53137700       0.71047100       0.06440700
    67  H          0.53137700       0.78952900       0.56440700
    68  H          0.46862300       0.28952900       0.93559300
    69  C          0.26448000       0.26584000       0.48883000
    70  C          0.73552000       0.76584000       0.01117000
    71  C          0.73552000       0.73416000       0.51117000
    72  C          0.26448000       0.23416000       0.98883000
    73  H          0.16180900       0.23107000       0.47334600
    74  H          0.83819100       0.73107000       0.02665400
    75  H          0.83819100       0.76893000       0.52665400
    76  H          0.16180900       0.26893000       0.97334600
    77  C          0.23258000       0.32884000       0.53423000
    78  C          0.76742000       0.82884000       0.96577000
    79  C          0.76742000       0.67116000       0.46577000
    80  C          0.23258000       0.17116000       0.03423000
    81  H          0.10939500       0.33626400       0.55120700
    82  H          0.89060500       0.83626400       0.94879300
    83  H          0.89060500       0.66373600       0.44879300
    84  H          0.10939500       0.16373600       0.05120700
    85  C          0.38398000       0.38064000       0.55413000
    86  C          0.61602000       0.88064000       0.94587000
    87  C          0.61602000       0.61936000       0.44587000
    88  C          0.38398000       0.11936000       0.05413000
    89  H          0.36395300       0.42438500       0.58474500
    90  H          0.63604700       0.92438500       0.91525500
    91  H          0.63604700       0.57561500       0.41525500
    92  H          0.36395300       0.07561500       0.08474500
    93  C          0.56408000       0.36893000       0.52972000
    94  C          0.43592000       0.86893000       0.97028000
    95  C          0.43592000       0.63107000       0.47028000
    96  C          0.56408000       0.13107000       0.02972000
    97  C          0.68768000       0.51063000       0.59802000
    98  C          0.31232000       0.01063000       0.90198000
    99  C          0.31232000       0.48937000       0.40198000
   100  C          0.68768000       0.98937000       0.09802000
   101  H          0.76837200       0.56184800       0.59274000
   102  H          0.23162800       0.06184800       0.90726000
   103  H          0.23162800       0.43815200       0.40726000
   104  H          0.76837200       0.93815200       0.09274000
   105  H          0.55575500       0.52640200       0.58443400
   106  H          0.44424500       0.02640200       0.91556600
   107  H          0.44424500       0.47359800       0.41556600
   108  H          0.55575500       0.97359800       0.08443400
   109  C          0.68798000       0.48843000       0.66903000
   110  C          0.31202000       0.98843000       0.83097000
   111  C          0.31202000       0.51157000       0.33097000
   112  C          0.68798000       0.01157000       0.16903000
   113  C          0.67798000       0.55433000       0.71203000
   114  C          0.32202000       0.05433000       0.78797000
   115  C          0.32202000       0.44567000       0.28797000
   116  C          0.67798000       0.94567000       0.21203000
   117  H          0.66817600       0.61117900       0.69641600
   118  H          0.33182400       0.11117900       0.80358400
   119  H          0.33182400       0.38882100       0.30358400
   120  H          0.66817600       0.88882100       0.19641600
   121  C          0.68178000       0.53984000       0.77923000
   122  C          0.31822000       0.03984000       0.72077000
   123  C          0.31822000       0.46016000       0.22077000
   124  C          0.68178000       0.96016000       0.27923000
   125  C          0.67118000       0.60714000       0.82413000
   126  C          0.32882000       0.10714000       0.67587000
   127  C          0.32882000       0.39286000       0.17587000
   128  C          0.67118000       0.89286000       0.32413000
   129  H          0.65956700       0.66440600       0.80946300
   130  H          0.34043300       0.16440600       0.69053700
   131  H          0.34043300       0.33559400       0.19053700
   132  H          0.65956700       0.83559400       0.30946300
   133  C          0.67739000       0.59025000       0.88883000
   134  C          0.32261000       0.09025000       0.61117000
   135  C          0.32261000       0.40975000       0.11117000
   136  C          0.67739000       0.90975000       0.38883000
   137  H          0.66987800       0.63581800       0.91867000
   138  H          0.33012200       0.13581800       0.58133000
   139  H          0.33012200       0.36418200       0.08133000
   140  H          0.66987800       0.86418200       0.41867000
   141  C          0.69469000       0.50574000       0.91083000
   142  C          0.30531000       0.00574000       0.58917000
   143  C          0.30531000       0.49426000       0.08917000
   144  C          0.69469000      -0.00574000       0.41083000
   145  H          0.70012600       0.49477700       0.95563900
   146  H          0.29987400      -0.00522300       0.54436100
   147  H          0.29987400       0.50522300       0.04436100
   148  H          0.70012600       0.00522300       0.45563900
   149  C          0.70359000       0.43864000       0.86883000
   150  C          0.29641000       0.93864000       0.63117000
   151  C          0.29641000       0.56136000       0.13117000
   152  C          0.70359000       0.06136000       0.36883000
   153  H          0.71493600       0.38183200       0.88452500
   154  H          0.28506400       0.88183200       0.61547500
   155  H          0.28506400       0.61816800       0.11547500
   156  H          0.71493600       0.11816800       0.38452500
   157  C          0.69577000       0.45424000       0.80153000
   158  C          0.30423000       0.95424000       0.69847000
   159  C          0.30423000       0.54576000       0.19847000
   160  C          0.69577000       0.04576000       0.30153000
   161  C          0.70298000       0.38714000       0.75643000
   162  C          0.29702000       0.88714000       0.74357000
   163  C          0.29702000       0.61286000       0.24357000
   164  C          0.70298000       0.11286000       0.25643000
   165  H          0.71124400       0.32973600       0.77116800
   166  H          0.28875600       0.82973600       0.72883200
   167  H          0.28875600       0.67026400       0.22883200
   168  H          0.71124400       0.17026400       0.27116800
   169  C          0.69808000       0.40304000       0.69163000
   170  C          0.30192000       0.90304000       0.80837000
   171  C          0.30192000       0.59696000       0.30837000
   172  C          0.69808000       0.09696000       0.19163000
   173  H          0.70145600       0.35692900       0.66200800
   174  H          0.29854400       0.85692900       0.83799200
   175  H          0.29854400       0.64307100       0.33799200
   176  H          0.70145600       0.14307100       0.16200800
