data_KIFYEE
_symmetry_space_group_name_H-M    'P1'
_symmetry_Int_Tables_number       1
loop_
_symmetry_equiv_pos_site_id
_symmetry_equiv_pos_as_xyz
1 x,y,z
_cell_length_a                   8.104801
_cell_length_b                   15.30133
_cell_length_c                   10.74553
_cell_angle_alpha                90.0
_cell_angle_beta                 102.33707
_cell_angle_gamma                90.0
loop_
_atom_site_label
_atom_site_type_symbol
_atom_site_fract_x
_atom_site_fract_y
_atom_site_fract_z
     1  Br         0.91392300       0.68669700       0.58219600
     2  Br         0.08607700       0.18669700       0.41780400
     3  Br         0.95960700       0.18434700       0.81216800
     4  Br         0.04039300       0.68434700       0.18783200
     5  O          0.42475000       0.64982000       0.95263000
     6  O          0.57525000       0.14982000       0.04737000
     7  O          0.48614000       0.63502000       0.62443000
     8  O          0.51386000       0.13502000       0.37557000
     9  O          0.53554000       0.46592000       0.56883000
    10  O          0.46446000       0.96592000       0.43117000
    11  O          0.49275000       0.29732000       0.50783000
    12  O          0.50725000       0.79732000       0.49217000
    13  C          0.16175000       0.68465000       0.64804000
    14  C          0.83825000       0.18465000       0.35196000
    15  C          0.20557000       0.75494000       0.74846000
    16  C          0.79443000       0.25494000       0.25154000
    17  C          0.39797000       0.75963000       0.79465000
    18  C          0.60203000       0.25963000       0.20535000
    19  C          0.48106000       0.67303000       0.83845000
    20  C          0.51894000       0.17303000       0.16155000
    21  C          0.42486000       0.60263000       0.73365000
    22  C          0.57514000       0.10263000       0.26635000
    23  C          0.50706000       0.51413000       0.77234000
    24  C          0.49294000       0.01413000       0.22766000
    25  C          0.45926000       0.44043000       0.67474000
    26  C          0.54074000       0.94043000       0.32526000
    27  C          0.26846000       0.43713000       0.62145000
    28  C          0.73154000       0.93713000       0.37855000
    29  C          0.19196000       0.52673000       0.58225000
    30  C          0.80804000       0.02673000       0.41775000
    31  C          0.22716000       0.59273000       0.69155000
    32  C          0.77284000       0.09273000       0.30845000
    33  C          0.52826000       0.34833000       0.73125000
    34  C          0.47174000       0.84833000       0.26875000
    35  C          0.48316000       0.27293000       0.63375000
    36  C          0.51684000       0.77293000       0.36625000
    37  C          0.60897000       0.19924000       0.68475000
    38  C          0.39103000       0.69924000       0.31525000
    39  C          0.73426000       0.23713000       0.79475000
    40  C          0.26574000       0.73713000       0.20525000
    41  C          0.72906000       0.33833000       0.78075000
    42  C          0.27094000       0.83833000       0.21925000
    43  C          0.67376000       0.68345000       0.87425000
    44  C          0.32624000       0.18345000       0.12575000
    45  C          0.14137000       0.56043000       0.79805000
    46  C          0.85863000       0.06043000       0.20195000
    47  C          0.44117000       0.32503000       0.84006000
    48  C          0.55883000       0.82503000       0.15994000
    49  C          0.83226000       0.36724000       0.68426000
    50  C          0.16774000       0.86724000       0.31574000
    51  C          0.80547000       0.37944000       0.90796000
    52  C          0.19453000       0.87944000       0.09204000
    53  H          0.21320000       0.70120000       0.57990000
    54  H          0.78680000       0.20120000       0.42010000
    55  H          0.16260000       0.80940000       0.71370000
    56  H          0.83740000       0.30940000       0.28630000
    57  H          0.15660000       0.74070000       0.81870000
    58  H          0.84340000       0.24070000       0.18130000
    59  H          0.44320000       0.78010000       0.72540000
    60  H          0.55680000       0.28010000       0.27460000
    61  H          0.42470000       0.79980000       0.86340000
    62  H          0.57530000       0.29980000       0.13660000
    63  H          0.62620000       0.52100000       0.78800000
    64  H          0.37380000       0.02100000       0.21200000
    65  H          0.47500000       0.49630000       0.84850000
    66  H          0.52500000      -0.00370000       0.15150000
    67  H          0.24700000       0.40000000       0.54890000
    68  H          0.75300000       0.90000000       0.45110000
    69  H          0.21580000       0.41370000       0.68500000
    70  H          0.78420000       0.91370000       0.31500000
    71  H          0.24050000       0.54840000       0.51540000
    72  H          0.75950000       0.04840000       0.48460000
    73  H          0.07340000       0.52080000       0.55270000
    74  H          0.92660000       0.02080000       0.44730000
    75  H          0.37130000       0.25360000       0.63250000
    76  H          0.62870000       0.75360000       0.36750000
    77  H          0.55110000       0.15170000       0.71320000
    78  H          0.44890000       0.65170000       0.28680000
    79  H          0.66390000       0.17950000       0.62020000
    80  H          0.33610000       0.67950000       0.37980000
    81  H          0.69660000       0.22360000       0.87030000
    82  H          0.30340000       0.72360000       0.12970000
    83  H          0.71490000       0.69870000       0.80070000
    84  H          0.28510000       0.19870000       0.19930000
    85  H          0.70280000       0.72790000       0.93670000
    86  H          0.29720000       0.22790000       0.06330000
    87  H          0.72280000       0.62960000       0.90750000
    88  H          0.27720000       0.12960000       0.09250000
    89  H          0.18730000       0.50540000       0.82870000
    90  H          0.81270000       0.00540000       0.17130000
    91  H          0.16140000       0.60180000       0.86540000
    92  H          0.83860000       0.10180000       0.13460000
    93  H          0.02310000       0.55460000       0.76610000
    94  H          0.97690000       0.05460000       0.23390000
    95  H          0.48260000       0.27050000       0.87570000
    96  H          0.51740000       0.77050000       0.12430000
    97  H          0.46300000       0.36890000       0.90400000
    98  H          0.53700000       0.86890000       0.09600000
    99  H          0.32290000       0.32090000       0.80720000
   100  H          0.67710000       0.82090000       0.19280000
   101  H          0.83120000       0.42910000       0.67690000
   102  H          0.16880000       0.92910000       0.32310000
   103  H          0.94550000       0.34740000       0.71000000
   104  H          0.05450000       0.84740000       0.29000000
   105  H          0.78230000       0.34210000       0.60420000
   106  H          0.21770000       0.84210000       0.39580000
   107  H          0.80330000       0.44130000       0.90140000
   108  H          0.19670000       0.94130000       0.09860000
   109  H          0.74260000       0.36160000       0.96870000
   110  H          0.25740000       0.86160000       0.03130000
   111  H          0.91900000       0.36010000       0.93430000
   112  H          0.08100000       0.86010000       0.06570000
   113  O          0.59937000       0.51454000       0.11415000
   114  O          0.40063000       0.01454000       0.88585000
   115  O          0.46575000       0.46933000       0.26164000
   116  O          0.53425000       0.96933000       0.73836000
   117  C          0.74809000       0.50685000       0.32797000
   118  C          0.25191000       0.00685000       0.67203000
   119  C          0.60049000       0.49784000       0.22146000
   120  C          0.39951000      -0.00216000       0.77854000
   121  C          0.31048000       0.45965000       0.16386000
   122  C          0.68952000       0.95965000       0.83614000
   123  C          0.17829000       0.42695000       0.23008000
   124  C          0.82171000       0.92695000       0.76992000
   125  H          0.84080000       0.52740000       0.29520000
   126  H          0.15920000       0.02740000       0.70480000
   127  H          0.72570000       0.54650000       0.39020000
   128  H          0.27430000       0.04650000       0.60980000
   129  H          0.77430000       0.45100000       0.36580000
   130  H          0.22570000       0.95100000       0.63420000
   131  H          0.27710000       0.51440000       0.12500000
   132  H          0.72290000       0.01440000       0.87500000
   133  H          0.32700000       0.41900000       0.10060000
   134  H          0.67300000       0.91900000       0.89940000
   135  H          0.21680000       0.37340000       0.27080000
   136  H          0.78320000       0.87340000       0.72920000
   137  H          0.16370000       0.46870000       0.29220000
   138  H          0.83630000       0.96870000       0.70780000
   139  H          0.07330000       0.41770000       0.17220000
   140  H          0.92670000       0.91770000       0.82780000
