data_KIGWUU
_symmetry_space_group_name_H-M    'P1'
_symmetry_Int_Tables_number       1
loop_
_symmetry_equiv_pos_site_id
_symmetry_equiv_pos_as_xyz
1 x,y,z
_cell_length_a                   19.653612
_cell_length_b                   6.00713
_cell_length_c                   27.04311
_cell_angle_alpha                90.0
_cell_angle_beta                 90.5264
_cell_angle_gamma                90.0
loop_
_atom_site_label
_atom_site_type_symbol
_atom_site_fract_x
_atom_site_fract_y
_atom_site_fract_z
     1  S          0.32272400      -0.01832880       0.48467300
     2  S          0.67727600      -0.01832880       0.01532700
     3  S          0.82272400       0.48167120       0.48467300
     4  S          0.17727600       0.48167120       0.01532700
     5  S          0.67727600       0.01832880       0.51532700
     6  S          0.32272400       0.01832880       0.98467300
     7  S          0.17727600       0.51832880       0.51532700
     8  S          0.82272400       0.51832880       0.98467300
     9  S          0.34521400       0.60249110       0.41425300
    10  S          0.65478600       0.60249110       0.08574700
    11  S          0.84521400       0.10249110       0.41425300
    12  S          0.15478600       0.10249110       0.08574700
    13  S          0.65478600       0.39750890       0.58574700
    14  S          0.34521400       0.39750890       0.91425300
    15  S          0.15478600       0.89750890       0.58574700
    16  S          0.84521400       0.89750890       0.91425300
    17  S          0.18498400       0.07929130       0.44544300
    18  S          0.81501600       0.07929130       0.05455700
    19  S          0.68498400       0.57929130       0.44544300
    20  S          0.31501600       0.57929130       0.05455700
    21  S          0.81501600       0.92070870       0.55455700
    22  S          0.18498400       0.92070870       0.94544300
    23  S          0.31501600       0.42070870       0.55455700
    24  S          0.68498400       0.42070870       0.94544300
    25  S          0.19016400       0.71175120       0.37056300
    26  S          0.80983600       0.71175120       0.12943700
    27  S          0.69016400       0.21175120       0.37056300
    28  S          0.30983600       0.21175120       0.12943700
    29  S          0.80983600       0.28824880       0.62943700
    30  S          0.19016400       0.28824880       0.87056300
    31  S          0.30983600       0.78824880       0.62943700
    32  S          0.69016400       0.78824880       0.87056300
    33  N          0.14246140       0.81204000       0.28488100
    34  N          0.85753860       0.81204000       0.21511900
    35  N          0.64246140       0.31204000       0.28488100
    36  N          0.35753860       0.31204000       0.21511900
    37  N          0.85753860       0.18796000       0.71511900
    38  N          0.14246140       0.18796000       0.78488100
    39  N          0.35753860       0.68796000       0.71511900
    40  N          0.64246140       0.68796000       0.78488100
    41  C          0.29424150       0.82464000       0.43356100
    42  C          0.70575850       0.82464000       0.06643900
    43  C          0.79424150       0.32464000       0.43356100
    44  C          0.20575850       0.32464000       0.06643900
    45  C          0.70575850       0.17536000       0.56643900
    46  C          0.29424150       0.17536000       0.93356100
    47  C          0.20575850       0.67536000       0.56643900
    48  C          0.79424150       0.67536000       0.93356100
    49  C          0.41393140       0.73644000       0.38408100
    50  C          0.58606860       0.73644000       0.11591900
    51  C          0.91393140       0.23644000       0.38408100
    52  C          0.08606860       0.23644000       0.11591900
    53  C          0.58606860       0.26356000       0.61591900
    54  C          0.41393140       0.26356000       0.88408100
    55  C          0.08606860       0.76356000       0.61591900
    56  C          0.91393140       0.76356000       0.88408100
    57  C          0.23203150       0.86944000       0.41578100
    58  C          0.76796850       0.86944000       0.08421900
    59  C          0.73203150       0.36944000       0.41578100
    60  C          0.26796850       0.36944000       0.08421900
    61  C          0.76796850       0.13056000       0.58421900
    62  C          0.23203150       0.13056000       0.91578100
    63  C          0.26796850       0.63056000       0.58421900
    64  C          0.73203150       0.63056000       0.91578100
    65  N          0.45799140       0.58864000       0.36790120
    66  N          0.54200860       0.58864000       0.13209880
    67  N          0.95799140       0.08864000       0.36790120
    68  N          0.04200860       0.08864000       0.13209880
    69  N          0.54200860       0.41136000       0.63209880
    70  N          0.45799140       0.41136000       0.86790120
    71  N          0.04200860       0.91136000       0.63209880
    72  N          0.95799140       0.91136000       0.86790120
    73  C          0.25177140       0.16044000       0.48511900
    74  C          0.74822860       0.16044000       0.01488100
    75  C          0.75177140       0.66044000       0.48511900
    76  C          0.24822860       0.66044000       0.01488100
    77  C          0.74822860       0.83956000       0.51488100
    78  C          0.25177140       0.83956000       0.98511900
    79  C          0.24822860       0.33956000       0.51488100
    80  C          0.75177140       0.33956000       0.98511900
    81  C          0.18093140       0.89974000       0.32037100
    82  C          0.81906860       0.89974000       0.17962900
    83  C          0.68093140       0.39974000       0.32037100
    84  C          0.31906860       0.39974000       0.17962900
    85  C          0.81906860       0.10026000       0.67962900
    86  C          0.18093140       0.10026000       0.82037100
    87  C          0.31906860       0.60026000       0.67962900
    88  C          0.68093140       0.60026000       0.82037100
    89  C          0.21026160       0.10964000       0.31775110
    90  C          0.78973840       0.10964000       0.18224890
    91  C          0.71026160       0.60964000       0.31775110
    92  C          0.28973840       0.60964000       0.18224890
    93  C          0.78973840       0.89036000       0.68224890
    94  C          0.21026160       0.89036000       0.81775110
    95  C          0.28973840       0.39036000       0.68224890
    96  C          0.71026160       0.39036000       0.81775110
    97  H          0.23820000       0.16260000       0.34310000
    98  H          0.76180000       0.16260000       0.15690000
    99  H          0.73820000       0.66260000       0.34310000
   100  H          0.26180000       0.66260000       0.15690000
   101  H          0.76180000       0.83740000       0.65690000
   102  H          0.23820000       0.83740000       0.84310000
   103  H          0.26180000       0.33740000       0.65690000
   104  H          0.73820000       0.33740000       0.84310000
   105  C          0.42049170       0.96204000       0.37671120
   106  C          0.57950830       0.96204000       0.12328880
   107  C          0.92049170       0.46204000       0.37671120
   108  C          0.07950830       0.46204000       0.12328880
   109  C          0.57950830       0.03796000       0.62328880
   110  C          0.42049170       0.03796000       0.87671120
   111  C          0.07950830       0.53796000       0.62328880
   112  C          0.92049170       0.53796000       0.87671120
   113  H          0.38770000       0.06100000       0.38800000
   114  H          0.61230000       0.06100000       0.11200000
   115  H          0.88770000       0.56100000       0.38800000
   116  H          0.11230000       0.56100000       0.11200000
   117  H          0.61230000       0.93900000       0.61200000
   118  H          0.38770000       0.93900000       0.88800000
   119  H          0.11230000       0.43900000       0.61200000
   120  H          0.88770000       0.43900000       0.88800000
   121  C          0.52352000       0.88896000       0.33511180
   122  C          0.47648000       0.88896000       0.16488820
   123  C          0.02352000       0.38896000       0.33511180
   124  C          0.97648000       0.38896000       0.16488820
   125  C          0.47648000       0.11104000       0.66488820
   126  C          0.52352000       0.11104000       0.83511180
   127  C          0.97648000       0.61104000       0.66488820
   128  C          0.02352000       0.61104000       0.83511180
   129  H          0.56180000       0.93660000       0.31810000
   130  H          0.43820000       0.93660000       0.18190000
   131  H          0.06180000       0.43660000       0.31810000
   132  H          0.93820000       0.43660000       0.18190000
   133  H          0.43820000       0.06340000       0.68190000
   134  H          0.56180000       0.06340000       0.81810000
   135  H          0.93820000       0.56340000       0.68190000
   136  H          0.06180000       0.56340000       0.81810000
   137  C          0.19667190       0.23625000       0.27669120
   138  C          0.80332810       0.23625000       0.22330880
   139  C          0.69667190       0.73625000       0.27669120
   140  C          0.30332810       0.73625000       0.22330880
   141  C          0.80332810       0.76375000       0.72330880
   142  C          0.19667190       0.76375000       0.77669120
   143  C          0.30332810       0.26375000       0.72330880
   144  C          0.69667190       0.26375000       0.77669120
   145  H          0.21420000       0.37950000       0.27400000
   146  H          0.78580000       0.37950000       0.22600000
   147  H          0.71420000       0.87950000       0.27400000
   148  H          0.28580000       0.87950000       0.22600000
   149  H          0.78580000       0.62050000       0.72600000
   150  H          0.21420000       0.62050000       0.77400000
   151  H          0.28580000       0.12050000       0.72600000
   152  H          0.71420000       0.12050000       0.77400000
   153  C          0.15722000       0.14967000       0.23984140
   154  C          0.84278000       0.14967000       0.26015860
   155  C          0.65722000       0.64967000       0.23984140
   156  C          0.34278000       0.64967000       0.26015860
   157  C          0.84278000       0.85033000       0.76015860
   158  C          0.15722000       0.85033000       0.73984140
   159  C          0.34278000       0.35033000       0.76015860
   160  C          0.65722000       0.35033000       0.73984140
   161  H          0.14740000       0.23250000       0.21160000
   162  H          0.85260000       0.23250000       0.28840000
   163  H          0.64740000       0.73250000       0.21160000
   164  H          0.35260000       0.73250000       0.28840000
   165  H          0.85260000       0.76750000       0.78840000
   166  H          0.14740000       0.76750000       0.71160000
   167  H          0.35260000       0.26750000       0.78840000
   168  H          0.64740000       0.26750000       0.71160000
   169  C          0.51190190       0.66676000       0.34385190
   170  C          0.48809810       0.66676000       0.15614810
   171  C          0.01190190       0.16676000       0.34385190
   172  C          0.98809810       0.16676000       0.15614810
   173  C          0.48809810       0.33324000       0.65614810
   174  C          0.51190190       0.33324000       0.84385190
   175  C          0.98809810       0.83324000       0.65614810
   176  C          0.01190190       0.83324000       0.84385190
   177  H          0.54360000       0.56470000       0.33230000
   178  H          0.45640000       0.56470000       0.16770000
   179  H          0.04360000       0.06470000       0.33230000
   180  H          0.95640000       0.06470000       0.16770000
   181  H          0.45640000       0.43530000       0.66770000
   182  H          0.54360000       0.43530000       0.83230000
   183  H          0.95640000       0.93530000       0.66770000
   184  H          0.04360000       0.93530000       0.83230000
   185  C          0.47688190       0.03605000       0.35226150
   186  C          0.52311810       0.03605000       0.14773850
   187  C          0.97688190       0.53605000       0.35226150
   188  C          0.02311810       0.53605000       0.14773850
   189  C          0.52311810       0.96395000       0.64773850
   190  C          0.47688190       0.96395000       0.85226150
   191  C          0.02311810       0.46395000       0.64773850
   192  C          0.97688190       0.46395000       0.85226150
   193  H          0.48320000       0.18780000       0.34740000
   194  H          0.51680000       0.18780000       0.15260000
   195  H          0.98320000       0.68780000       0.34740000
   196  H          0.01680000       0.68780000       0.15260000
   197  H          0.51680000       0.81220000       0.65260000
   198  H          0.48320000       0.81220000       0.84740000
   199  H          0.01680000       0.31220000       0.65260000
   200  H          0.98320000       0.31220000       0.84740000
   201  C          0.13232000       0.94007000       0.24501130
   202  C          0.86768000       0.94007000       0.25498870
   203  C          0.63232000       0.44007000       0.24501130
   204  C          0.36768000       0.44007000       0.25498870
   205  C          0.86768000       0.05993000       0.75498870
   206  C          0.13232000       0.05993000       0.74501130
   207  C          0.36768000       0.55993000       0.75498870
   208  C          0.63232000       0.55993000       0.74501130
   209  H          0.10640000       0.88160000       0.21910000
   210  H          0.89360000       0.88160000       0.28090000
   211  H          0.60640000       0.38160000       0.21910000
   212  H          0.39360000       0.38160000       0.28090000
   213  H          0.89360000       0.11840000       0.78090000
   214  H          0.10640000       0.11840000       0.71910000
   215  H          0.39360000       0.61840000       0.78090000
   216  H          0.60640000       0.61840000       0.71910000
   217  S          0.50811900       0.26833000       0.47946800
   218  S          0.49188100       0.26833000       0.02053200
   219  S          0.00811900       0.76833000       0.47946800
   220  S          0.99188100       0.76833000       0.02053200
   221  S          0.49188100       0.73167000       0.52053200
   222  S          0.50811900       0.73167000       0.97946800
   223  S          0.99188100       0.23167000       0.52053200
   224  S          0.00811900       0.23167000       0.97946800
   225  C          0.50000000       0.50000000       0.50000000
   226  C          0.50000000       0.50000000      -0.00000000
   227  C         -0.00000000       0.00000000       0.50000000
   228  C         -0.00000000      -0.00000000      -0.00000000
