data_KIGZEF
_symmetry_space_group_name_H-M    'P1'
_symmetry_Int_Tables_number       1
loop_
_symmetry_equiv_pos_site_id
_symmetry_equiv_pos_as_xyz
1 x,y,z
_cell_length_a                   7.97656
_cell_length_b                   8.84716
_cell_length_c                   13.63098
_cell_angle_alpha                90.0
_cell_angle_beta                 90.0
_cell_angle_gamma                90.0
loop_
_atom_site_label
_atom_site_type_symbol
_atom_site_fract_x
_atom_site_fract_y
_atom_site_fract_z
     1  Cl         0.08722130       0.25000000       0.09286000
     2  Cl         0.41277870       0.75000000       0.59286000
     3  Cl         0.58722130       0.25000000       0.40714000
     4  Cl         0.91277870       0.75000000       0.90714000
     5  S          0.01587800       0.09629700       0.85741500
     6  S          0.48412200       0.90370300       0.35741500
     7  S          0.51587800       0.40370300       0.64258500
     8  S         -0.01587800       0.59629700       0.14258500
     9  S         -0.01587800       0.90370300       0.14258500
    10  S          0.51587800       0.09629700       0.64258500
    11  S          0.48412200       0.59629700       0.35741500
    12  S          0.01587800       0.40370300       0.85741500
    13  N          0.11774000       0.25000000       0.84167220
    14  N          0.38226000       0.75000000       0.34167220
    15  N          0.61774000       0.25000000       0.65832780
    16  N          0.88226000       0.75000000       0.15832780
    17  C          0.82307000       0.17033000       0.88307140
    18  C          0.67693000       0.82967000       0.38307140
    19  C          0.32307000       0.32967000       0.61692860
    20  C          0.17693000       0.67033000       0.11692860
    21  C          0.17693000       0.82967000       0.11692860
    22  C          0.32307000       0.17033000       0.61692860
    23  C          0.67693000       0.67033000       0.38307140
    24  C          0.82307000       0.32967000       0.88307140
    25  C          0.67450000       0.08983000       0.90137170
    26  C          0.82550000       0.91017000       0.40137170
    27  C          0.17450000       0.41017000       0.59862830
    28  C          0.32550000       0.58983000       0.09862830
    29  C          0.32550000       0.91017000       0.09862830
    30  C          0.17450000       0.08983000       0.59862830
    31  C          0.82550000       0.58983000       0.40137170
    32  C          0.67450000       0.41017000       0.90137170
    33  C          0.53167000       0.17063000       0.91884180
    34  C          0.96833000       0.82937000       0.41884180
    35  C          0.03167000       0.32937000       0.58115820
    36  C          0.46833000       0.67063000       0.08115820
    37  C          0.46833000       0.82937000       0.08115820
    38  C          0.03167000       0.17063000       0.58115820
    39  C          0.96833000       0.67063000       0.41884180
    40  C          0.53167000       0.32937000       0.91884180
    41  H          0.68160000       0.97560000       0.90141800
    42  H          0.81840000       0.02440000       0.40141800
    43  H          0.18160000       0.52440000       0.59858200
    44  H          0.31840000       0.47560000       0.09858200
    45  H          0.31840000       0.02440000       0.09858200
    46  H          0.18160000       0.97560000       0.59858200
    47  H          0.81840000       0.47560000       0.40141800
    48  H          0.68160000       0.52440000       0.90141800
    49  H          0.43260000       0.11030000       0.93412000
    50  H          0.06740000       0.88970000       0.43412000
    51  H          0.93260000       0.38970000       0.56588000
    52  H          0.56740000       0.61030000       0.06588000
    53  H          0.56740000       0.88970000       0.06588000
    54  H          0.93260000       0.11030000       0.56588000
    55  H          0.06740000       0.61030000       0.43412000
    56  H          0.43260000       0.38970000       0.93412000
    57  S          0.23670130       0.25000000       0.28707700
    58  S          0.26329870       0.75000000       0.78707700
    59  S          0.73670130       0.25000000       0.21292300
    60  S          0.76329870       0.75000000       0.71292300
    61  O          0.16623000       0.11373000       0.32112180
    62  O          0.33377000       0.88627000       0.82112180
    63  O          0.66623000       0.38627000       0.17887820
    64  O          0.83377000       0.61373000       0.67887820
    65  O          0.83377000       0.88627000       0.67887820
    66  O          0.66623000       0.11373000       0.17887820
    67  O          0.33377000       0.61373000       0.82112180
    68  O          0.16623000       0.38627000       0.32112180
