data_KIJFOC
_symmetry_space_group_name_H-M    'P1'
_symmetry_Int_Tables_number       1
loop_
_symmetry_equiv_pos_site_id
_symmetry_equiv_pos_as_xyz
1 x,y,z
_cell_length_a                   10.21896
_cell_length_b                   13.86551
_cell_length_c                   16.37781
_cell_angle_alpha                90.0
_cell_angle_beta                 93.4733
_cell_angle_gamma                90.0
loop_
_atom_site_label
_atom_site_type_symbol
_atom_site_fract_x
_atom_site_fract_y
_atom_site_fract_z
     1  O          0.89762900       0.57322800       0.38376600
     2  O          0.10237100       0.07322800       0.11623400
     3  O          0.10237100       0.42677200       0.61623400
     4  O          0.89762900       0.92677200       0.88376600
     5  N          0.68070120       0.58719100       0.38162700
     6  N          0.31929880       0.08719100       0.11837300
     7  N          0.31929880       0.41280900       0.61837300
     8  N          0.68070120       0.91280900       0.88162700
     9  H          0.67389000       0.57319200       0.33038800
    10  H          0.32611000       0.07319200       0.16961200
    11  H          0.32611000       0.42680800       0.66961200
    12  H          0.67389000       0.92680800       0.83038800
    13  H          0.61152700       0.59908700       0.40729500
    14  H          0.38847300       0.09908700       0.09270500
    15  H          0.38847300       0.40091300       0.59270500
    16  H          0.61152700       0.90091300       0.90729500
    17  C          0.80893130       0.61469900       0.51017800
    18  C          0.19106870       0.11469900       0.98982200
    19  C          0.19106870       0.38530100       0.48982200
    20  C          0.80893130       0.88530100       0.01017800
    21  O          0.57962900       0.62905800       0.52169500
    22  O          0.42037100       0.12905800       0.97830500
    23  O          0.42037100       0.37094200       0.47830500
    24  O          0.57962900       0.87094200       0.02169500
    25  C          0.70256130       0.63405900       0.55859800
    26  C          0.29743870       0.13405900       0.94140200
    27  C          0.29743870       0.36594100       0.44140200
    28  C          0.70256130       0.86594100       0.05859800
    29  C          0.72538160       0.65726110       0.64109900
    30  C          0.27461840       0.15726110       0.85890100
    31  C          0.27461840       0.34273890       0.35890100
    32  C          0.72538160       0.84273890       0.14109900
    33  H          0.65519000       0.66939400       0.67319900
    34  H          0.34481000       0.16939400       0.82680100
    35  H          0.34481000       0.33060600       0.32680100
    36  H          0.65519000       0.83060600       0.17319900
    37  C          0.85188180       0.66219120       0.67501100
    38  C          0.14811820       0.16219120       0.82498900
    39  C          0.14811820       0.33780880       0.32498900
    40  C          0.85188180       0.83780880       0.17501100
    41  H          0.86653000       0.67900000       0.72977400
    42  H          0.13347000       0.17900000       0.77022600
    43  H          0.13347000       0.32100000       0.27022600
    44  H          0.86653000       0.82100000       0.22977400
    45  C          0.95745170       0.64246120       0.62862100
    46  C          0.04254830       0.14246120       0.87137900
    47  C          0.04254830       0.35753880       0.37137900
    48  C          0.95745170       0.85753880       0.12862100
    49  H          0.04253600       0.64539800       0.65209400
    50  H          0.95746400       0.14539800       0.84790600
    51  H          0.95746400       0.35460200       0.34790600
    52  H          0.04253600       0.85460200       0.15209400
    53  C          0.93524150       0.61835100       0.54709900
    54  C          0.06475850       0.11835100       0.95290100
    55  C          0.06475850       0.38164900       0.45290100
    56  C          0.93524150       0.88164900       0.04709900
    57  H          0.00620800       0.60425000       0.51617900
    58  H         -0.00620800       0.10425000       0.98382100
    59  H         -0.00620800       0.39575000       0.48382100
    60  H          0.00620800       0.89575000       0.01617900
    61  C          0.79709130       0.59042900       0.42079800
    62  C          0.20290870       0.09042900       0.07920200
    63  C          0.20290870       0.40957100       0.57920200
    64  C          0.79709130       0.90957100       0.92079800
    65  C          0.46817140       0.64911120       0.56773900
    66  C          0.53182860       0.14911120       0.93226100
    67  C          0.53182860       0.35088880       0.43226100
    68  C          0.46817140       0.85088880       0.06773900
    69  H          0.47386300       0.71383800       0.59012100
    70  H          0.52613700       0.21383800       0.90987900
    71  H          0.52613700       0.28616200       0.40987900
    72  H          0.47386300       0.78616200       0.09012100
    73  H          0.46375100       0.60372000       0.61254700
    74  H          0.53624900       0.10372000       0.88745300
    75  H          0.53624900       0.39628000       0.38745300
    76  H          0.46375100       0.89628000       0.11254700
    77  C          0.34956150       0.63962130       0.51002100
    78  C          0.65043850       0.13962130       0.98997900
    79  C          0.65043850       0.36037870       0.48997900
    80  C          0.34956150       0.86037870       0.01002100
    81  H          0.35269800       0.68740700       0.46777100
    82  H          0.64730200       0.18740700       0.03222900
    83  H          0.64730200       0.31259300       0.53222900
    84  H          0.35269800       0.81259300       0.96777100
    85  H          0.27202600       0.64887600       0.53937900
    86  H          0.72797400       0.14887600       0.96062100
    87  H          0.72797400       0.35112400       0.46062100
    88  H          0.27202600       0.85112400       0.03937900
    89  H          0.34789800       0.57649100       0.48590900
    90  H          0.65210200       0.07649100       0.01409100
    91  H          0.65210200       0.42350900       0.51409100
    92  H          0.34789800       0.92350900       0.98590900
    93  N          0.88519120       0.93796110       0.70296700
    94  N          0.11480880       0.43796110       0.79703300
    95  N          0.11480880       0.06203890       0.29703300
    96  N          0.88519120       0.56203890       0.20296700
    97  H          0.89586400       0.95493400       0.75342500
    98  H          0.10413600       0.45493400       0.74657500
    99  H          0.10413600       0.04506600       0.24657500
   100  H          0.89586400       0.54506600       0.25342500
   101  H          0.95171900       0.92116700       0.67651300
   102  H          0.04828100       0.42116700       0.82348700
   103  H          0.04828100       0.07883300       0.32348700
   104  H          0.95171900       0.57883300       0.17651300
   105  O          0.66962900       0.96200700       0.70417600
   106  O          0.33037100       0.46200700       0.79582400
   107  O          0.33037100       0.03799300       0.29582400
   108  O          0.66962900       0.53799300       0.20417600
   109  O          0.97665900       0.88937700       0.56121600
   110  O          0.02334100       0.38937700       0.93878400
   111  O          0.02334100       0.11062300       0.43878400
   112  O          0.97665900       0.61062300       0.06121600
   113  C          0.74878130       0.90891900       0.57817800
   114  C          0.25121870       0.40891900       0.92182200
   115  C          0.25121870       0.09108100       0.42182200
   116  C          0.74878130       0.59108100       0.07817800
   117  C          0.85105130       0.88405900       0.52793800
   118  C          0.14894870       0.38405900       0.97206200
   119  C          0.14894870       0.11594100       0.47206200
   120  C          0.85105130       0.61594100       0.02793800
   121  C          0.82161150       0.85626100       0.44716900
   122  C          0.17838850       0.35626100       0.05283100
   123  C          0.17838850       0.14373900       0.55283100
   124  C          0.82161150       0.64373900       0.94716900
   125  H          0.88872800       0.83971100       0.41390500
   126  H          0.11127200       0.33971100       0.08609500
   127  H          0.11127200       0.16028900       0.58609500
   128  H          0.88872800       0.66028900       0.91390500
   129  C          0.69299160       0.85330120       0.41650900
   130  C          0.30700840       0.35330120       0.08349100
   131  C          0.30700840       0.14669880       0.58349100
   132  C          0.69299160       0.64669880       0.91650900
   133  H          0.67418800       0.83467800       0.36250500
   134  H          0.32581200       0.33467800       0.13749500
   135  H          0.32581200       0.16532200       0.63749500
   136  H          0.67418800       0.66532200       0.86250500
   137  C          0.59177160       0.87751120       0.46461100
   138  C          0.40822840       0.37751120       0.03538900
   139  C          0.40822840       0.12248880       0.53538900
   140  C          0.59177160       0.62248880       0.96461100
   141  H          0.50534200       0.87538800       0.44335800
   142  H          0.49465800       0.37538800       0.05664200
   143  H          0.49465800       0.12461200       0.55664200
   144  H          0.50534200       0.62461200       0.94335800
   145  C          0.62041140       0.90493100       0.54472900
   146  C          0.37958860       0.40493100       0.95527100
   147  C          0.37958860       0.09506900       0.45527100
   148  C          0.62041140       0.59506900       0.04472900
   149  H          0.55215400       0.92115900       0.57718400
   150  H          0.44784600       0.42115900       0.92281600
   151  H          0.44784600       0.07884100       0.42281600
   152  H          0.55215400       0.57884100       0.07718400
   153  C          0.76672130       0.93768900       0.66608800
   154  C          0.23327870       0.43768900       0.83391200
   155  C          0.23327870       0.06231100       0.33391200
   156  C          0.76672130       0.56231100       0.16608800
   157  C          0.08362140       0.86320110       0.51283900
   158  C          0.91637860       0.36320110       0.98716100
   159  C          0.91637860       0.13679890       0.48716100
   160  C          0.08362140       0.63679890       0.01283900
   161  H          0.08669700       0.90559800       0.46587400
   162  H          0.91330300       0.40559800       0.03412600
   163  H          0.91330300       0.09440200       0.53412600
   164  H          0.08669700       0.59440200       0.96587400
   165  H          0.07319800       0.79740000       0.49339500
   166  H          0.92680200       0.29740000       0.00660500
   167  H          0.92680200       0.20260000       0.50660500
   168  H          0.07319800       0.70260000      -0.00660500
   169  C          0.20673150       0.87263120       0.56657110
   170  C          0.79326850       0.37263120       0.93342890
   171  C          0.79326850       0.12736880       0.43342890
   172  C          0.20673150       0.62736880       0.06657110
   173  H          0.28104500       0.85884000       0.53536300
   174  H          0.71895500       0.35884000       0.96463700
   175  H          0.71895500       0.14116000       0.46463700
   176  H          0.28104500       0.64116000       0.03536300
   177  H          0.20445900       0.82792600       0.61122200
   178  H          0.79554100       0.32792600       0.88877800
   179  H          0.79554100       0.17207400       0.38877800
   180  H          0.20445900       0.67207400       0.11122200
   181  H          0.21363500       0.93717800       0.58759800
   182  H          0.78636500       0.43717800       0.91240200
   183  H          0.78636500       0.06282200       0.41240200
   184  H          0.21363500       0.56282200       0.08759800
   185  O          0.04171100       0.77426800       0.84205700
   186  O          0.95828900       0.27426800       0.65794300
   187  O          0.95828900       0.22573200       0.15794300
   188  O          0.04171100       0.72573200       0.34205700
   189  H          0.00960100       0.82596400       0.85465600
   190  H         -0.00960100       0.32596400       0.64534400
   191  H         -0.00960100       0.17403600       0.14534400
   192  H          0.00960100       0.67403600       0.35465600
   193  O          0.44389900       0.63818800       0.76770600
   194  O          0.55610100       0.13818800       0.73229400
   195  O          0.55610100       0.36181200       0.23229400
   196  O          0.44389900       0.86181200       0.26770600
   197  H          0.40401300       0.58874100       0.77792600
   198  H          0.59598700       0.08874100       0.72207400
   199  H          0.59598700       0.41125900       0.22207400
   200  H          0.40401300       0.91125900       0.27792600
   201  C          0.23957130       0.70763100       0.80440800
   202  C          0.76042870       0.20763100       0.69559200
   203  C          0.76042870       0.29236900       0.19559200
   204  C          0.23957130       0.79236900       0.30440800
   205  H          0.20461900       0.64680500       0.81302600
   206  H          0.79538100       0.14680500       0.68697400
   207  H          0.79538100       0.35319500       0.18697400
   208  H          0.20461900       0.85319500       0.31302600
   209  C          0.16519130       0.78932100       0.81677800
   210  C          0.83480870       0.28932100       0.68322200
   211  C          0.83480870       0.21067900       0.18322200
   212  C          0.16519130       0.71067900       0.31677800
   213  C          0.21610150       0.88032110       0.80397900
   214  C          0.78389850       0.38032110       0.69602100
   215  C          0.78389850       0.11967890       0.19602100
   216  C          0.21610150       0.61967890       0.30397900
   217  H          0.16652600       0.93521700       0.81263100
   218  H          0.83347400       0.43521700       0.68736900
   219  H          0.83347400       0.06478300       0.18736900
   220  H          0.16652600       0.56478300       0.31263100
   221  C          0.34180160       0.88797120       0.77813100
   222  C          0.65819840       0.38797120       0.72186900
   223  C          0.65819840       0.11202880       0.22186900
   224  C          0.34180160       0.61202880       0.27813100
   225  H          0.37641900       0.94882700       0.76918300
   226  H          0.62358100       0.44882700       0.73081700
   227  H          0.62358100       0.05117300       0.23081700
   228  H          0.37641900       0.55117300       0.26918300
   229  C          0.41754140       0.80724120       0.76523900
   230  C          0.58245860       0.30724120       0.73476100
   231  C          0.58245860       0.19275880       0.23476100
   232  C          0.41754140       0.69275880       0.26523900
   233  H          0.50183000       0.81361400       0.74744500
   234  H          0.49817000       0.31361400       0.75255500
   235  H          0.49817000       0.18638600       0.25255500
   236  H          0.50183000       0.68638600       0.24744500
   237  C          0.36561130       0.71653100       0.77926700
   238  C          0.63438870       0.21653100       0.72073300
   239  C          0.63438870       0.28346900       0.22073300
   240  C          0.36561130       0.78346900       0.27926700
