data_KIJQID
_symmetry_space_group_name_H-M    'P1'
_symmetry_Int_Tables_number       1
loop_
_symmetry_equiv_pos_site_id
_symmetry_equiv_pos_as_xyz
1 x,y,z
_cell_length_a                   11.0562
_cell_length_b                   11.2442
_cell_length_c                   13.5122
_cell_angle_alpha                90.0
_cell_angle_beta                 113.87213
_cell_angle_gamma                90.0
loop_
_atom_site_label
_atom_site_type_symbol
_atom_site_fract_x
_atom_site_fract_y
_atom_site_fract_z
     1  Cl         0.65621000       0.24101000       0.56811000
     2  Cl         0.84379000       0.74101000       0.93189000
     3  Cl         0.34379000       0.75899000       0.43189000
     4  Cl         0.15621000       0.25899000       0.06811000
     5  P          0.16141000       0.92321000       0.43781000
     6  P          0.33859000       0.42321000       0.06219000
     7  P          0.83859000       0.07679000       0.56219000
     8  P          0.66141000       0.57679000       0.93781000
     9  N          0.13852000      -0.00768000       0.32282000
    10  N          0.36148000       0.49232000       0.17718000
    11  N          0.86148000       0.00768000       0.67718000
    12  N          0.63852000       0.50768000       0.82282000
    13  C          0.21613000       0.09222000       0.33752000
    14  C          0.28387000       0.59222000       0.16248000
    15  C          0.78387000       0.90778000       0.66248000
    16  C          0.71613000       0.40778000       0.83752000
    17  C          0.28603000       0.11522000       0.44342000
    18  C          0.21397000       0.61522000       0.05658000
    19  C          0.71397000       0.88478000       0.55658000
    20  C          0.78603000       0.38478000       0.94342000
    21  N          0.25922000       0.03252000       0.50822000
    22  N          0.24078000       0.53252000      -0.00822000
    23  N          0.74078000       0.96748000       0.49178000
    24  N          0.75922000       0.46748000       0.00822000
    25  C          0.05982000       0.94082000       0.21222000
    26  C          0.44018000       0.44082000       0.28778000
    27  C          0.94018000       0.05918000       0.78778000
    28  C          0.55982000       0.55918000       0.71222000
    29  C          0.15483000       0.91302000       0.15902000
    30  C          0.34517000       0.41302000       0.34098000
    31  C          0.84517000       0.08698000       0.84098000
    32  C          0.65483000       0.58698000       0.65902000
    33  C          0.95697000       0.03173000       0.14572000
    34  C          0.54303000       0.53173000       0.35428000
    35  C          0.04303000       0.96827000       0.85428000
    36  C          0.45697000       0.46827000       0.64572000
    37  C         -0.00773000       0.82732000       0.22532000
    38  C          0.50773000       0.32732000       0.27468000
    39  C          0.00773000       0.17268000       0.77468000
    40  C          0.49227000       0.67268000       0.72532000
    41  C          0.32983000       0.03472000       0.62992000
    42  C          0.17017000       0.53472000       0.87008000
    43  C          0.67017000       0.96528000       0.37008000
    44  C          0.82983000       0.46528000       0.12992000
    45  C          0.31413000       0.15843000       0.66952000
    46  C          0.18587000       0.65843000       0.83048000
    47  C          0.68587000       0.84157000       0.33048000
    48  C          0.81413000       0.34157000       0.16952000
    49  C          0.47483000       0.00463000       0.65932000
    50  C          0.02517000       0.50463000       0.84068000
    51  C          0.52517000      -0.00463000       0.34068000
    52  C          0.97483000       0.49537000       0.15932000
    53  C          0.26593000       0.94173000       0.67592000
    54  C          0.23407000       0.44173000       0.82408000
    55  C          0.73407000       0.05827000       0.32408000
    56  C          0.76593000       0.55827000       0.17592000
    57  H          0.21973000       0.13902000       0.28032000
    58  H          0.28027000       0.63902000       0.21968000
    59  H          0.78027000       0.86098000       0.71968000
    60  H          0.71973000       0.36098000       0.78032000
    61  H          0.34603000       0.17962000       0.47032000
    62  H          0.15397000       0.67962000       0.02968000
    63  H          0.65397000       0.82038000       0.52968000
    64  H          0.84603000       0.32038000       0.97032000
    65  H          0.22023000       0.85442000       0.20292000
    66  H          0.27977000       0.35442000       0.29708000
    67  H          0.77977000       0.14558000       0.79708000
    68  H          0.72023000       0.64558000       0.70292000
    69  H          0.20013000       0.98602000       0.15362000
    70  H          0.29987000       0.48602000       0.34638000
    71  H          0.79987000       0.01398000       0.84638000
    72  H          0.70013000       0.51398000       0.65362000
    73  H          0.10503000       0.88062000       0.08642000
    74  H          0.39497000       0.38062000       0.41358000
    75  H          0.89497000       0.11938000       0.91358000
    76  H          0.60503000       0.61938000       0.58642000
    77  H          0.89697000       0.04853000       0.18102000
    78  H          0.60303000       0.54853000       0.31898000
    79  H          0.10303000       0.95147000       0.81898000
    80  H          0.39697000       0.45147000       0.68102000
    81  H          0.90637000      -0.00017000       0.07302000
    82  H          0.59363000       0.49983000       0.42698000
    83  H          0.09363000       0.00017000       0.92698000
    84  H          0.40637000       0.50017000       0.57302000
    85  H          0.00153000       0.10523000       0.14022000
    86  H          0.49847000       0.60523000       0.35978000
    87  H         -0.00153000       0.89477000       0.85978000
    88  H          0.50153000       0.39477000       0.64022000
    89  H          0.05963000       0.76962000       0.26822000
    90  H          0.44037000       0.26962000       0.23178000
    91  H          0.94037000       0.23038000       0.73178000
    92  H          0.55963000       0.73038000       0.76822000
    93  H          0.93947000       0.79362000       0.15392000
    94  H          0.56053000       0.29362000       0.34608000
    95  H          0.06053000       0.20638000       0.84608000
    96  H          0.43947000       0.70638000       0.65392000
    97  H          0.93457000       0.84582000       0.26242000
    98  H          0.56543000       0.34582000       0.23758000
    99  H          0.06543000       0.15418000       0.73758000
   100  H          0.43457000       0.65418000       0.76242000
   101  H          0.22003000       0.17493000       0.64942000
   102  H          0.27997000       0.67493000       0.85058000
   103  H          0.77997000       0.82507000       0.35058000
   104  H          0.72003000       0.32507000       0.14942000
   105  H          0.35073000       0.21783000       0.63622000
   106  H          0.14927000       0.71783000       0.86378000
   107  H          0.64927000       0.78217000       0.36378000
   108  H          0.85073000       0.28217000       0.13622000
   109  H          0.36143000       0.16213000       0.74842000
   110  H          0.13857000       0.66213000       0.75158000
   111  H          0.63857000       0.83787000       0.25158000
   112  H          0.86143000       0.33787000       0.24842000
   113  H          0.48133000       0.92483000       0.63272000
   114  H          0.01867000       0.42483000       0.86728000
   115  H          0.51867000       0.07517000       0.36728000
   116  H          0.98133000       0.57517000       0.13272000
   117  H          0.52353000       0.00703000       0.73812000
   118  H          0.97647000       0.50703000       0.76188000
   119  H          0.47647000      -0.00703000       0.26188000
   120  H          0.02353000       0.49297000       0.23812000
   121  H          0.51273000       0.06273000       0.62582000
   122  H         -0.01273000       0.56273000       0.87418000
   123  H          0.48727000       0.93727000       0.37418000
   124  H          0.01273000       0.43727000       0.12582000
   125  H          0.17303000       0.96253000       0.65632000
   126  H          0.32697000       0.46253000       0.84368000
   127  H          0.82697000       0.03747000       0.34368000
   128  H          0.67303000       0.53747000       0.15632000
   129  H          0.31263000       0.93953000       0.75492000
   130  H          0.18737000       0.43953000       0.74508000
   131  H          0.68737000       0.06047000       0.24508000
   132  H          0.81263000       0.56047000       0.25492000
   133  H          0.27123000       0.86343000       0.64602000
   134  H          0.22877000       0.36343000       0.85398000
   135  H          0.72877000       0.13657000       0.35398000
   136  H          0.77123000       0.63657000       0.14602000
   137  C          0.09283000       0.43683000       0.47732000
   138  C          0.40717000       0.93683000       0.02268000
   139  C          0.90717000       0.56317000       0.52268000
   140  C          0.59283000       0.06317000       0.97732000
   141  C          0.09863000       0.55933000       0.48192000
   142  C          0.40137000       0.05933000       0.01808000
   143  C          0.90137000       0.44067000       0.51808000
   144  C          0.59863000       0.94067000       0.98192000
   145  C         -0.00673000       0.37763000       0.49492000
   146  C          0.50673000       0.87763000       0.00508000
   147  C          0.00673000       0.62237000       0.50508000
   148  C          0.49327000       0.12237000      -0.00508000
   149  H          0.15683000       0.39313000       0.46212000
   150  H          0.34317000       0.89313000       0.03788000
   151  H          0.84317000       0.60687000       0.53788000
   152  H          0.65683000       0.10687000       0.96212000
   153  H          0.16603000       0.60013000       0.46902000
   154  H          0.33397000       0.10013000       0.03098000
   155  H          0.83397000       0.39987000       0.53098000
   156  H          0.66603000       0.89987000       0.96902000
   157  H         -0.01143000       0.29323000       0.49092000
   158  H          0.51143000       0.79323000       0.00908000
   159  H          0.01143000       0.70677000       0.50908000
   160  H          0.48857000       0.20677000      -0.00908000
