data_KIMRUW
_symmetry_space_group_name_H-M    'P1'
_symmetry_Int_Tables_number       1
loop_
_symmetry_equiv_pos_site_id
_symmetry_equiv_pos_as_xyz
1 x,y,z
_cell_length_a                   11.89189
_cell_length_b                   10.496211
_cell_length_c                   12.84279
_cell_angle_alpha                90.0
_cell_angle_beta                 99.9387
_cell_angle_gamma                90.0
loop_
_atom_site_label
_atom_site_type_symbol
_atom_site_fract_x
_atom_site_fract_y
_atom_site_fract_z
     1  Cl         0.22576300       0.44342400       0.02246300
     2  Cl         0.27423700       0.94342400       0.47753700
     3  Cl         0.77423700       0.55657600       0.97753700
     4  Cl         0.72576300       0.05657600       0.52246300
     5  O          0.86547900       0.25627130       0.70565200
     6  O          0.63452100       0.75627130       0.79434800
     7  O          0.13452100       0.74372870       0.29434800
     8  O          0.36547900       0.24372870       0.20565200
     9  O         -0.00459100       0.34344120       0.05171700
    10  O          0.50459100       0.84344120       0.44828300
    11  O          0.00459100       0.65655880       0.94828300
    12  O          0.49540900       0.15655880       0.55171700
    13  N          0.04434110       0.33524130       0.75020100
    14  N          0.45565890       0.83524130       0.74979900
    15  N          0.95565890       0.66475870       0.24979900
    16  N          0.54434110       0.16475870       0.25020100
    17  H          0.05801800       0.32520000       0.68248100
    18  H          0.44198200       0.82520000       0.81751900
    19  H          0.94198200       0.67480000       0.31751900
    20  H          0.55801800       0.17480000       0.18248100
    21  C          0.94329120       0.29513150       0.77348900
    22  C          0.55670880       0.79513150       0.72651100
    23  C          0.05670880       0.70486850       0.22651100
    24  C          0.44329120       0.20486850       0.27348900
    25  N          0.93292110       0.29940130       0.87880100
    26  N          0.56707890       0.79940130       0.62119900
    27  N          0.06707890       0.70059870       0.12119900
    28  N          0.43292110       0.20059870       0.37880100
    29  H          0.86771800       0.26820000       0.89488400
    30  H          0.63228200       0.76820000       0.60511600
    31  H          0.13228200       0.73180000       0.10511600
    32  H          0.36771800       0.23180000       0.39488400
    33  C          0.01452120       0.34306140       0.96038900
    34  C          0.48547880       0.84306140       0.53961100
    35  C          0.98547880       0.65693860       0.03961100
    36  C          0.51452120       0.15693860       0.46038900
    37  C          0.11823110       0.38517140       0.92791900
    38  C          0.38176890       0.88517140       0.57208100
    39  C          0.88176890       0.61482860       0.07208100
    40  C          0.61823110       0.11482860       0.42791900
    41  C          0.12975120       0.37906150       0.82544890
    42  C          0.37024880       0.87906150       0.67455110
    43  C          0.87024880       0.62093850       0.17455110
    44  C          0.62975120       0.12093850       0.32544890
    45  H          0.20070000       0.40660000       0.80510000
    46  H          0.29930000       0.90660000       0.69490000
    47  H          0.79930000       0.59340000       0.19490000
    48  H          0.70070000       0.09340000       0.30510000
    49  N          0.66565130       0.12935160       0.75736900
    50  N          0.83434870       0.62935160       0.74263100
    51  N          0.33434870       0.87064840       0.24263100
    52  N          0.16565130       0.37064840       0.25736900
    53  H          0.73341700       0.16341700       0.74508500
    54  H          0.76658300       0.66341700       0.75491500
    55  H          0.26658300       0.83658300       0.25491500
    56  H          0.23341700       0.33658300       0.24508500
    57  H          0.61471700       0.12241900       0.70798400
    58  H          0.88528300       0.62241900       0.79201600
    59  H          0.38528300       0.87758100       0.29201600
    60  H          0.11471700       0.37758100       0.20798400
    61  N          0.76765110       0.25236150       0.10486100
    62  N          0.73234890       0.75236150       0.39513900
    63  N          0.23234890       0.74763850       0.89513900
    64  N          0.26765110       0.24763850       0.60486100
    65  H          0.83581800       0.28011900       0.08851500
    66  H          0.66418200       0.78011900       0.41148500
    67  H          0.16418200       0.71988100       0.91148500
    68  H          0.33581800       0.21988100       0.58851500
    69  H          0.74181700       0.29221900       0.15811700
    70  H          0.75818300       0.79221900       0.34188300
    71  H          0.25818300       0.70778100       0.84188300
    72  H          0.24181700       0.20778100       0.65811700
    73  N          0.39093120       0.15461170       0.98613880
    74  N          0.10906880       0.65461170       0.51386120
    75  N          0.60906880       0.84538830       0.01386120
    76  N          0.89093120       0.34538830       0.48613880
    77  H          0.33511800       0.13620000       0.93468300
    78  H          0.16488200       0.63620000       0.56531700
    79  H          0.66488200       0.86380000       0.06531700
    80  H          0.83511800       0.36380000       0.43468300
    81  H          0.37701800       0.18020000       0.04731900
    82  H          0.12298200       0.68020000       0.45268100
    83  H          0.62298200       0.81980000       0.95268100
    84  H          0.87701800       0.31980000       0.54731900
    85  N          0.71742100       0.19608120       0.92970100
    86  N          0.78257900       0.69608120       0.57029900
    87  N          0.28257900       0.80391880       0.07029900
    88  N          0.21742100       0.30391880       0.42970100
    89  C          0.63366120       0.15493140       0.85107900
    90  C          0.86633880       0.65493140       0.64892100
    91  C          0.36633880       0.84506860       0.14892100
    92  C          0.13366120       0.34506860       0.35107900
    93  C          0.52207120       0.13963150       0.86539900
    94  C          0.97792880       0.63963150       0.63460100
    95  C          0.47792880       0.86036850       0.13460100
    96  C          0.02207120       0.36036850       0.36539900
    97  H          0.46031600       0.11411700       0.80798600
    98  H          0.03968400       0.61411700       0.69201400
    99  H          0.53968400       0.88588300       0.19201400
   100  H          0.96031600       0.38588300       0.30798600
   101  C          0.49717120       0.16416140       0.96507900
   102  C          0.00282880       0.66416140       0.53492100
   103  C          0.50282880       0.83583860       0.03492100
   104  C         -0.00282880       0.33583860       0.46507900
   105  N          0.58029100       0.19998120       0.04596900
   106  N          0.91970900       0.69998120       0.45403100
   107  N          0.41970900       0.80001880       0.95403100
   108  N          0.08029100       0.30001880       0.54596900
   109  C          0.68556120       0.21563140       0.02343100
   110  C          0.81443880       0.71563140       0.47656900
   111  C          0.31443880       0.78436860       0.97656900
   112  C          0.18556120       0.28436860       0.52343100
   113  O          0.71743100       0.41752130       0.29527100
   114  O          0.78256900       0.91752130       0.20472900
   115  O          0.28256900       0.58247870       0.70472900
   116  O          0.21743100       0.08247870       0.79527100
   117  N          0.53921130       0.50189150       0.27259140
   118  N          0.96078870       0.00189150       0.22740860
   119  N          0.46078870       0.49810850       0.72740860
   120  N          0.03921130      -0.00189150       0.77259140
   121  C          0.63508160       0.45994180       0.32959150
   122  C          0.86491840       0.95994180       0.17040850
   123  C          0.36491840       0.54005820       0.67040850
   124  C          0.13508160       0.04005820       0.82959150
   125  H          0.64090000       0.46300000       0.40580000
   126  H          0.85910000       0.96300000       0.09420000
   127  H          0.35910000       0.53700000       0.59420000
   128  H          0.14090000       0.03700000       0.90580000
   129  C          0.52622000       0.50572000       0.15790180
   130  C          0.97378000       0.00572000       0.34209820
   131  C          0.47378000       0.49428000       0.84209820
   132  C          0.02622000      -0.00572000       0.65790180
   133  H          0.59560000       0.47490000       0.13630000
   134  H          0.90440000       0.97490000       0.36370000
   135  H          0.40440000       0.52510000       0.86370000
   136  H          0.09560000       0.02510000       0.63630000
   137  H          0.51190000       0.59270000       0.13360000
   138  H         -0.01190000       0.09270000       0.36640000
   139  H          0.48810000       0.40730000       0.86640000
   140  H          0.01190000       0.90730000       0.63360000
   141  H          0.46260000       0.45210000       0.12730000
   142  H          0.03740000       0.95210000       0.37270000
   143  H          0.53740000       0.54790000       0.87270000
   144  H          0.96260000       0.04790000       0.62730000
   145  C          0.44642000       0.55102000       0.32143000
   146  C          0.05358000       0.05102000       0.17857000
   147  C          0.55358000       0.44898000       0.67857000
   148  C          0.94642000       0.94898000       0.82143000
   149  H          0.43680000       0.64130000       0.30640000
   150  H          0.06320000       0.14130000       0.19360000
   151  H          0.56320000       0.35870000       0.69360000
   152  H          0.93680000       0.85870000       0.80640000
   153  H          0.46420000       0.53810000       0.39730000
   154  H          0.03580000       0.03810000       0.10270000
   155  H          0.53580000       0.46190000       0.60270000
   156  H          0.96420000       0.96190000       0.89730000
   157  H          0.37640000       0.50640000       0.29310000
   158  H          0.12360000       0.00640000       0.20690000
   159  H          0.62360000       0.49360000       0.70690000
   160  H          0.87640000      -0.00640000       0.79310000
