data_KIMREG
_symmetry_space_group_name_H-M    'P1'
_symmetry_Int_Tables_number       1
loop_
_symmetry_equiv_pos_site_id
_symmetry_equiv_pos_as_xyz
1 x,y,z
_cell_length_a                   9.46247
_cell_length_b                   10.53408
_cell_length_c                   10.95919
_cell_angle_alpha                113.1327
_cell_angle_beta                 94.7646
_cell_angle_gamma                113.7877
loop_
_atom_site_label
_atom_site_type_symbol
_atom_site_fract_x
_atom_site_fract_y
_atom_site_fract_z
     1  N          0.13033000      -0.00313000       0.87353000
     2  N          0.86967000       0.00313000       0.12647000
     3  H          0.08240000       0.91160000       0.86830000
     4  H          0.91760000       0.08840000       0.13170000
     5  H          0.12040000       0.06540000       0.92830000
     6  H          0.87960000       0.93460000       0.07170000
     7  N          0.43943000       0.33613000       0.72583000
     8  N          0.56057000       0.66387000       0.27417000
     9  H          0.41240000       0.40540000       0.78330000
    10  H          0.58760000       0.59460000       0.21670000
    11  H          0.48040000       0.34140000       0.65830000
    12  H          0.51960000       0.65860000       0.34170000
    13  N          0.36874000       0.83587000       0.53923000
    14  N          0.63126000       0.16413000       0.46077000
    15  H          0.33040000       0.75160000       0.53430000
    16  H          0.66960000       0.24840000       0.46570000
    17  H          0.43240000       0.85760000       0.49740000
    18  H          0.56760000       0.14240000       0.50260000
    19  N          0.28223000       0.17072000       0.80282000
    20  N          0.71777000       0.82928000       0.19718000
    21  C          0.22183000       0.02593000       0.79263000
    22  C          0.77817000       0.97407000       0.20737000
    23  N          0.24523000       0.90808000       0.70532000
    24  N          0.75477000       0.09192000       0.29468000
    25  C          0.33913000       0.94567000       0.62653000
    26  C          0.66087000       0.05433000       0.37347000
    27  N          0.40743000       0.08632000       0.62892000
    28  N          0.59257000       0.91368000       0.37108000
    29  C          0.37443000       0.19343000       0.71833000
    30  C          0.62557000       0.80657000       0.28167000
    31  Br         0.32201400       0.85829300       0.07603300
    32  Br         0.67798600       0.14170700       0.92396700
    33  O          0.08413000       0.25112000       0.07922000
    34  O          0.91587000       0.74888000       0.92078000
    35  O          0.31893000       0.55442000       0.88002000
    36  O          0.68107000       0.44558000       0.11998000
    37  N          0.11413000       0.49783000       0.17112000
    38  N          0.88587000       0.50217000       0.82888000
    39  H          0.07340000       0.48340000       0.22430000
    40  H          0.92660000       0.51660000       0.77570000
    41  C          0.13263000       0.37733000       0.07923000
    42  C          0.86737000       0.62267000       0.92077000
    43  N          0.20703000       0.40653000       0.98392000
    44  N          0.79297000       0.59347000       0.01608000
    45  H          0.23130000       0.33640000       0.92430000
    46  H          0.76870000       0.66360000       0.07570000
    47  C          0.26083000       0.54223000       0.97333000
    48  C          0.73917000       0.45777000       0.02667000
    49  C          0.24083000       0.66523000       0.07873000
    50  C          0.75917000       0.33477000       0.92127000
    51  C          0.16893000       0.63893000       0.17273000
    52  C          0.83107000       0.36107000       0.82727000
    53  H          0.15580000       0.72160000       0.24260000
    54  H          0.84420000       0.27840000       0.75740000
    55  Br         0.43720400       0.28938700       0.23373300
    56  Br         0.56279600       0.71061300       0.76626700
    57  O          0.00383000       0.19638000       0.58432000
    58  O         -0.00383000       0.80362000       0.41568000
    59  O          0.31703000       0.51198000       0.42012000
    60  O          0.68297000       0.48802000       0.57988000
    61  N          0.13003000       0.10337000       0.43132000
    62  N          0.86997000       0.89663000       0.56868000
    63  H          0.07930000       0.00360000       0.41730000
    64  H          0.92070000      -0.00360000       0.58270000
    65  C          0.09203000       0.21597000       0.50973000
    66  C          0.90797000       0.78403000       0.49027000
    67  N          0.15963000       0.35137000       0.49862000
    68  N          0.84037000       0.64863000       0.50138000
    69  H          0.15430000       0.43070000       0.55030000
    70  H          0.84570000       0.56930000       0.44970000
    71  C          0.26333000       0.38557000       0.42073000
    72  C          0.73667000       0.61443000       0.57927000
    73  C          0.29943000       0.26007000       0.34473000
    74  C          0.70057000       0.73993000       0.65527000
    75  C          0.23263000       0.12727000       0.35363000
    76  C          0.76737000       0.87273000       0.64637000
    77  H          0.25810000       0.04450000       0.30260000
    78  H          0.74190000       0.95550000       0.69740000
    79  O          0.12933000       0.61147000       0.69702000
    80  O          0.87067000       0.38853000       0.30298000
    81  H          0.20370000       0.63020000       0.74360000
    82  H          0.79630000       0.36980000       0.25640000
    83  H          0.16550000       0.70350000       0.69540000
    84  H          0.83450000       0.29650000       0.30460000
