data_KIPJAY
_symmetry_space_group_name_H-M    'P1'
_symmetry_Int_Tables_number       1
loop_
_symmetry_equiv_pos_site_id
_symmetry_equiv_pos_as_xyz
1 x,y,z
_cell_length_a                   3.96365
_cell_length_b                   10.353015
_cell_length_c                   27.4964
_cell_angle_alpha                90.0
_cell_angle_beta                 92.3555
_cell_angle_gamma                90.0
loop_
_atom_site_label
_atom_site_type_symbol
_atom_site_fract_x
_atom_site_fract_y
_atom_site_fract_z
     1  S          0.50763120       0.28115400       0.41067200
     2  S          0.49236880       0.78115400       0.08932800
     3  S          0.49236880       0.71884600       0.58932800
     4  S          0.50763120       0.21884600       0.91067200
     5  N          0.30154000       0.44214140       0.34149500
     6  N          0.69846000       0.94214140       0.15850500
     7  N          0.69846000       0.55785860       0.65850500
     8  N          0.30154000       0.05785860       0.84149500
     9  N          0.07424000       0.03310140       0.25001500
    10  N          0.92576000       0.53310140       0.24998500
    11  N          0.92576000       0.96689860       0.74998500
    12  N          0.07424000       0.46689860       0.75001500
    13  C          0.25544000       0.22120140       0.31940500
    14  C          0.74456000       0.72120140       0.18059500
    15  C          0.74456000       0.77879860       0.68059500
    16  C          0.25544000       0.27879860       0.81940500
    17  C          0.34894000       0.32247150       0.35633500
    18  C          0.65106000       0.82247150       0.14366500
    19  C          0.65106000       0.67752850       0.64366500
    20  C          0.34894000       0.17752850       0.85633500
    21  C          0.10474000       0.10643160       0.33272600
    22  C          0.89526000       0.60643160       0.16727400
    23  C          0.89526000       0.89356840       0.66727400
    24  C          0.10474000       0.39356840       0.83272600
    25  C          0.31954000       0.23825160       0.27057600
    26  C          0.68046000       0.73825160       0.22942400
    27  C          0.68046000       0.76174840       0.72942400
    28  C          0.31954000       0.26174840       0.77057600
    29  C          0.01855000       0.01744170       0.29714600
    30  C         -0.01855000       0.51744170       0.20285400
    31  C         -0.01855000       0.98255830       0.70285400
    32  C          0.01855000       0.48255830       0.79714600
    33  C          0.22675000       0.14230170       0.23776600
    34  C          0.77325000       0.64230170       0.26223400
    35  C          0.77325000       0.85769830       0.76223400
    36  C          0.22675000       0.35769830       0.73776600
    37  H          0.05540000       0.09201700       0.36556000
    38  H          0.94460000       0.59201700       0.13444000
    39  H          0.94460000       0.90798300       0.63444000
    40  H          0.05540000       0.40798300       0.86556000
    41  H          0.37250000       0.51020000       0.35988000
    42  H          0.62750000       0.01020000       0.14012000
    43  H          0.62750000       0.48980000       0.64012000
    44  H          0.37250000      -0.01020000       0.85988000
    45  H          0.43150000       0.30920000       0.26017000
    46  H          0.56850000       0.80920000       0.23983000
    47  H          0.56850000       0.69080000       0.73983000
    48  H          0.43150000       0.19080000       0.76017000
    49  H          0.27550000       0.15311900       0.20387000
    50  H          0.72450000       0.65311900       0.29613000
    51  H          0.72450000       0.84688100       0.79613000
    52  H          0.27550000       0.34688100       0.70387000
    53  H          0.19750000       0.45520000       0.31428000
    54  H          0.80250000       0.95520000       0.18572000
    55  H          0.80250000       0.54480000       0.68572000
    56  H          0.19750000       0.04480000       0.81428000
    57  H          0.90450000       0.93580000       0.30737000
    58  H          0.09550000       0.43580000       0.19263000
    59  H          0.09550000       0.06420000       0.69263000
    60  H          0.90450000       0.56420000       0.80737000
    61  N          0.60284000       0.66775150       0.39580500
    62  N          0.39716000       0.16775150       0.10419500
    63  N          0.39716000       0.33224850       0.60419500
    64  N          0.60284000       0.83224850       0.89580500
    65  C          0.85394000       0.84724160       0.46481500
    66  C          0.14606000       0.34724160       0.03518500
    67  C          0.14606000       0.15275840       0.53518500
    68  C          0.85394000       0.65275840       0.96481500
    69  C         -0.00306000       0.93661160       0.50175600
    70  C          0.00306000       0.43661160      -0.00175600
    71  C          0.00306000       0.06338840       0.49824400
    72  C         -0.00306000       0.56338840       0.00175600
    73  C          0.66894000       0.88652170       0.42328600
    74  C          0.33106000       0.38652170       0.07671400
    75  C          0.33106000       0.11347830       0.57671400
    76  C          0.66894000       0.61347830       0.92328600
    77  C          0.55075000       0.79438180       0.39047600
    78  C          0.44925000       0.29438180       0.10952400
    79  C          0.44925000       0.20561820       0.60952400
    80  C          0.55075000       0.70561820       0.89047600
    81  C          0.90415000       0.71614170       0.47071700
    82  C          0.09585000       0.21614170       0.02928300
    83  C          0.09585000       0.28385830       0.52928300
    84  C          0.90415000       0.78385830       0.97071700
    85  C          0.77935000       0.63131190       0.43569700
    86  C          0.22065000       0.13131190       0.06430300
    87  C          0.22065000       0.36868810       0.56430300
    88  C          0.77935000       0.86868810       0.93569700
    89  H          0.61350000       0.97220000       0.41757000
    90  H          0.38650000       0.47220000       0.08243000
    91  H          0.38650000       0.02780000       0.58243000
    92  H          0.61350000       0.52780000       0.91757000
    93  H          0.41050000       0.81921900       0.36127000
    94  H          0.58950000       0.31921900       0.13873000
    95  H          0.58950000       0.18078100       0.63873000
    96  H          0.41050000       0.68078100       0.86127000
    97  H          0.81660000       0.54220000       0.44008000
    98  H          0.18340000       0.04220000       0.05992000
    99  H          0.18340000       0.45780000       0.55992000
   100  H          0.81660000       0.95780000       0.94008000
   101  H          0.02650000       0.68720000       0.49808000
   102  H         -0.02650000       0.18720000       0.00192000
   103  H         -0.02650000       0.31280000       0.50192000
   104  H          0.02650000       0.81280000      -0.00192000
   105  H          0.11460000       0.90020000       0.53078000
   106  H          0.88540000       0.40020000       0.96922000
   107  H          0.88540000       0.09980000       0.46922000
   108  H          0.11460000       0.59980000       0.03078000
