data_KIQZOZ
_symmetry_space_group_name_H-M    'P1'
_symmetry_Int_Tables_number       1
loop_
_symmetry_equiv_pos_site_id
_symmetry_equiv_pos_as_xyz
1 x,y,z
_cell_length_a                   7.08032
_cell_length_b                   9.11184
_cell_length_c                   16.66907
_cell_angle_alpha                90.0
_cell_angle_beta                 98.6572
_cell_angle_gamma                90.0
loop_
_atom_site_label
_atom_site_type_symbol
_atom_site_fract_x
_atom_site_fract_y
_atom_site_fract_z
     1  C          0.58663000       0.72412000       0.45293130
     2  C          0.58663000       0.27588000       0.95293130
     3  C          0.66523000       0.85313000       0.48698130
     4  C          0.66523000       0.14687000       0.98698130
     5  C          0.66593000       0.97893000       0.43960150
     6  C          0.66593000       0.02107000       0.93960150
     7  C          0.58903000       0.97433000       0.35810140
     8  C          0.58903000       0.02567000       0.85810140
     9  C          0.51063000       0.84523000       0.32375140
    10  C          0.51063000       0.15477000       0.82375140
    11  C          0.50963000       0.71962000       0.37113140
    12  C          0.50963000       0.28038000       0.87113140
    13  C          0.60773000       0.60903000       0.51789140
    14  C          0.60773000       0.39097000       0.01789140
    15  C          0.73733000       0.82403000       0.57442140
    16  C          0.73733000       0.17597000       0.07442140
    17  C          0.73774000       0.13123000       0.45919190
    18  C          0.73774000       0.86877000       0.95919190
    19  C          0.61154000       0.12363000       0.32287190
    20  C          0.61154000       0.87637000       0.82287190
    21  C          0.41704000       0.80653000       0.23967150
    22  C          0.41704000       0.19347000       0.73967150
    23  C          0.41763000       0.59883000       0.31880140
    24  C          0.41763000       0.40117000       0.81880140
    25  O          0.56353000       0.48442000       0.51636130
    26  O          0.56353000       0.51558000       0.01636130
    27  O          0.69783000       0.67782000       0.58859110
    28  O          0.69783000       0.32218000       0.08859110
    29  O          0.81463000       0.90193000       0.62580120
    30  O          0.81463000       0.09807000       0.12580120
    31  O          0.81103000       0.18402000       0.52032150
    32  O          0.81103000       0.81598000       0.02032150
    33  O          0.70023000       0.21064190       0.38689150
    34  O          0.70023000       0.78935810       0.88689150
    35  O          0.57203000       0.16942000       0.25665140
    36  O          0.57203000       0.83058000       0.75665140
    37  O          0.38283000       0.87963000       0.18080120
    38  O          0.38283000       0.12037000       0.68080120
    39  O          0.36593000       0.65952000       0.24132110
    40  O          0.36593000       0.34048000       0.74132110
    41  O          0.38553000       0.47602000       0.33283140
    42  O          0.38553000       0.52398000       0.83283140
    43  C          0.15423000       0.92432000       0.44615140
    44  C          0.15423000       0.07568000       0.94615140
    45  C          0.07803000       0.92272000       0.36247140
    46  C          0.07803000       0.07728000       0.86247140
    47  C         -0.01013000       0.78812000       0.32509130
    48  C         -0.01013000       0.21188000       0.82509130
    49  C         -0.01613000       0.66052000       0.37293130
    50  C         -0.01613000       0.33948000       0.87293130
    51  C          0.06713000       0.66093000       0.45903140
    52  C          0.06713000       0.33907000       0.95903140
    53  C          0.15063000       0.79063000       0.49501130
    54  C          0.15063000       0.20937000      -0.00498870
    55  C          0.23413000       0.05693000       0.48022160
    56  C          0.23413000       0.94307000       0.98022160
    57  C          0.24194000       0.18143000       0.43377170
    58  C          0.24194000       0.81857000       0.93377170
    59  C          0.16773000       0.17923000       0.35132170
    60  C          0.16773000       0.82077000       0.85132170
    61  C          0.08653000       0.05163000       0.31614160
    62  C          0.08653000       0.94837000       0.81614160
    63  C          0.90827000       0.78373000       0.24237140
    64  C          0.90827000       0.21627000       0.74237140
    65  C          0.82246000       0.65713000       0.20787150
    66  C          0.82246000       0.34287000       0.70787150
    67  C          0.81586000       0.53133000       0.25517160
    68  C          0.81586000       0.46867000       0.75517160
    69  C          0.89437000       0.53313000       0.33572160
    70  C          0.89437000       0.46687000       0.83572160
    71  C          0.06493000       0.53373000       0.50715150
    72  C          0.06493000       0.46627000       0.00715150
    73  C          0.14524000       0.53373000       0.58772160
    74  C          0.14524000       0.46627000       0.08772160
    75  C          0.22974000       0.66073000       0.62338160
    76  C          0.22974000       0.33927000       0.12338160
    77  C          0.23224000       0.78743000       0.57810150
    78  C          0.23224000       0.21257000       0.07810150
    79  H          0.27740000       0.06630000       0.53281900
    80  H          0.27740000       0.93370000       0.03281900
    81  H          0.29840000       0.27030000       0.46011900
    82  H          0.29840000       0.72970000       0.96011900
    83  H          0.17040000       0.26230000       0.31961900
    84  H          0.17040000       0.73770000       0.81961900
    85  H          0.02540000       0.05630000       0.25920000
    86  H          0.02540000       0.94370000       0.75920000
    87  H          0.90460000       0.86840000       0.20641900
    88  H          0.90460000       0.13160000       0.70641900
    89  H          0.76750000       0.65440000       0.15120000
    90  H          0.76750000       0.34560000       0.65120000
    91  H          0.75060000       0.44330000       0.22961900
    92  H          0.75060000       0.55670000       0.72961900
    93  H          0.89260000       0.45230000       0.36721800
    94  H          0.89260000       0.54770000       0.86721800
    95  H          0.00940000       0.44030000       0.48431800
    96  H          0.00940000       0.55970000       0.98431800
    97  H          0.14940000       0.45130000       0.61931900
    98  H          0.14940000       0.54870000       0.11931900
    99  H          0.28750000       0.65940000       0.67920000
   100  H          0.28750000       0.34060000       0.17920000
   101  H          0.29550000       0.86740000       0.60441900
   102  H          0.29550000       0.13260000       0.10441900
