data_KISKAB
_symmetry_space_group_name_H-M    'P1'
_symmetry_Int_Tables_number       1
loop_
_symmetry_equiv_pos_site_id
_symmetry_equiv_pos_as_xyz
1 x,y,z
_cell_length_a                   8.485313
_cell_length_b                   11.605617
_cell_length_c                   12.192718
_cell_angle_alpha                84.2097
_cell_angle_beta                 73.9356
_cell_angle_gamma                83.5167
loop_
_atom_site_label
_atom_site_type_symbol
_atom_site_fract_x
_atom_site_fract_y
_atom_site_fract_z
     1  P          0.40386160       0.74866130       0.60164120
     2  P          0.59613840       0.25133870       0.39835880
     3  F          0.35334000       0.86603000       0.66063000
     4  F          0.64666000       0.13397000       0.33937000
     5  F          0.28154000       0.68433000       0.70853000
     6  F          0.71846000       0.31567000       0.29147000
     7  F          0.45454000       0.62933000       0.54453000
     8  F          0.54546000       0.37067000       0.45547000
     9  F          0.52714000       0.81103000       0.49663000
    10  F          0.47286000       0.18897000       0.50337000
    11  F          0.25793000       0.77633000       0.54072000
    12  F          0.74207000       0.22367000       0.45928000
    13  F          0.54993000       0.72013000       0.66332000
    14  F          0.45007000       0.27987000       0.33668000
    15  O          0.39884000       0.07973000       0.87443000
    16  O          0.60116000       0.92027000       0.12557000
    17  O          0.71994000       0.06183000       0.72583000
    18  O          0.28006000       0.93817000       0.27417000
    19  O          0.02154000       0.15513000       0.70543000
    20  O          0.97846000       0.84487000       0.29457000
    21  O         -0.00184000       0.59743000       0.34163000
    22  O          0.00184000       0.40257000       0.65837000
    23  O          0.08584000       0.42903000       0.15653000
    24  O          0.91416000       0.57097000       0.84347000
    25  C          0.31786000       0.16974000       0.94014000
    26  C          0.68214000       0.83026000       0.05986000
    27  C          0.22196000       0.26265000       0.90414000
    28  C          0.77804000       0.73735000       0.09586000
    29  H          0.20770000       0.26750000       0.82910000
    30  H          0.79230000       0.73250000       0.17090000
    31  C          0.14686000       0.34835000       0.97764000
    32  C          0.85314000       0.65165000       0.02236000
    33  H          0.08280000       0.41260000       0.95230000
    34  H          0.91720000       0.58740000       0.04770000
    35  C          0.16446000       0.34085000       0.08874000
    36  C          0.83554000       0.65915000       0.91126000
    37  C          0.26076000       0.24564000       0.12394000
    38  C          0.73924000       0.75436000       0.87606000
    39  H          0.27520000       0.23940000       0.19880000
    40  H          0.72480000       0.76060000       0.80120000
    41  C          0.33396000       0.16154000       0.05044000
    42  C          0.66604000       0.83846000       0.94956000
    43  H          0.39680000       0.09640000       0.07560000
    44  H          0.60320000       0.90360000       0.92440000
    45  C          0.43196000       0.10105000       0.75184000
    46  C          0.56804000       0.89895000       0.24816000
    47  H          0.45090000       0.18370000       0.72890000
    48  H          0.54910000       0.81630000       0.27110000
    49  H          0.33720000       0.08290000       0.72610000
    50  H          0.66280000       0.91710000       0.27390000
    51  C          0.58176000       0.02455000       0.69944000
    52  C          0.41824000       0.97545000       0.30056000
    53  H          0.56680000       0.94290000       0.72960000
    54  H          0.43320000       0.05710000       0.27040000
    55  H          0.59980000       0.02860000       0.61540000
    56  H          0.40020000       0.97140000       0.38460000
    57  C          0.87046000       0.00405000       0.66244000
    58  C          0.12954000      -0.00405000       0.33756000
    59  H          0.89120000       0.02950000       0.58000000
    60  H          0.10880000       0.97050000       0.42000000
    61  H          0.86340000       0.91880000       0.67140000
    62  H          0.13660000       0.08120000       0.32860000
    63  C          0.00816000       0.03405000       0.70735000
    64  C         -0.00816000       0.96595000       0.29265000
    65  H         -0.00860000       0.00010000       0.78710000
    66  H          0.00860000      -0.00010000       0.21290000
    67  H          0.11340000      -0.00260000       0.66120000
    68  H          0.88660000       0.00260000       0.33880000
    69  C          0.06296000       0.21105000       0.59234000
    70  C          0.93704000       0.78895000       0.40766000
    71  H          0.96410000       0.22350000       0.56290000
    72  H          0.03590000       0.77650000       0.43710000
    73  H          0.14760000       0.16110000       0.54050000
    74  H          0.85240000       0.83890000       0.45950000
    75  C          0.87344000       0.67565000       0.40504000
    76  C          0.12656000       0.32435000       0.59496000
    77  H          0.83240000       0.64130000       0.48420000
    78  H          0.16760000       0.35870000       0.51580000
    79  H          0.78020000       0.68800000       0.36990000
    80  H          0.21980000       0.31200000       0.63010000
    81  C          0.93624000       0.48915000       0.34144000
    82  C          0.06376000       0.51085000       0.65856000
    83  H          0.84300000       0.50130000       0.30640000
    84  H          0.15700000       0.49870000       0.69360000
    85  H          0.89420000       0.45720000       0.42140000
    86  H          0.10580000       0.54280000       0.57860000
    87  C          0.06256000       0.40345000       0.27804000
    88  C          0.93744000       0.59655000       0.72196000
    89  H          0.16780000       0.40660000       0.29720000
    90  H          0.83220000       0.59340000       0.70280000
    91  H          0.02700000       0.32410000       0.30030000
    92  H          0.97300000       0.67590000       0.69970000
    93  N          0.30195000       0.70034000       0.04703000
    94  N          0.69805000       0.29966000       0.95297000
    95  N          0.38175000       0.61474000       0.19423000
    96  N          0.61825000       0.38526000       0.80577000
    97  C          0.39976000       0.60024000       0.00934000
    98  C          0.60024000       0.39976000      -0.00934000
    99  C          0.22706000       0.78825000       0.97835000
   100  C          0.77294000       0.21175000       0.02165000
   101  H          0.15140000       0.84320000       0.02850000
   102  H          0.84860000       0.15680000       0.97150000
   103  H          0.16580000       0.75060000       0.93660000
   104  H          0.83420000       0.24940000       0.06340000
   105  H          0.31320000       0.83010000       0.92370000
   106  H          0.68680000       0.16990000       0.07630000
   107  C          0.29506000       0.70515000       0.15784000
   108  C          0.70494000       0.29485000       0.84216000
   109  H          0.23570000       0.76540000       0.20390000
   110  H          0.76430000       0.23460000       0.79610000
   111  C          0.40376000       0.59245000       0.30964000
   112  C          0.59624000       0.40755000       0.69036000
   113  H          0.33880000       0.65280000       0.35810000
   114  H          0.66120000       0.34720000       0.64190000
   115  H          0.52040000       0.59330000       0.30610000
   116  H          0.47960000       0.40670000       0.69390000
   117  H          0.36670000       0.51620000       0.34200000
   118  H          0.63330000       0.48380000       0.65800000
   119  C          0.45216000       0.54494000       0.10334000
   120  C          0.54784000       0.45506000       0.89666000
   121  C          0.55406000       0.44344000       0.09824000
   122  C          0.44594000       0.55656000       0.90176000
   123  H          0.58920000       0.40680000       0.16170000
   124  H          0.41080000       0.59320000       0.83830000
