data_KIYSOB
_symmetry_space_group_name_H-M    'P1'
_symmetry_Int_Tables_number       1
loop_
_symmetry_equiv_pos_site_id
_symmetry_equiv_pos_as_xyz
1 x,y,z
_cell_length_a                   6.5232
_cell_length_b                   7.6532
_cell_length_c                   27.9927
_cell_angle_alpha                87.432
_cell_angle_beta                 85.132
_cell_angle_gamma                78.622
loop_
_atom_site_label
_atom_site_type_symbol
_atom_site_fract_x
_atom_site_fract_y
_atom_site_fract_z
     1  N          0.50334000       0.06183000       0.27104800
     2  N          0.49666000       0.93817000       0.72895200
     3  N          0.42344000       0.41233000       0.24238900
     4  N          0.57656000       0.58767000       0.75761100
     5  C          0.32555000       0.16935000       0.28500100
     6  C          0.67445000       0.83065000       0.71499900
     7  C          0.28025000       0.34435000       0.26985110
     8  C          0.71975000       0.65565000       0.73014890
     9  C          0.60665000       0.30595000       0.22851110
    10  C          0.39335000       0.69405000       0.77148890
    11  C          0.64325000       0.13025000       0.24194100
    12  C          0.35675000       0.86975000       0.75805900
    13  C          0.39318000       0.60166000       0.22743180
    14  C          0.60682000       0.39834000       0.77256820
    15  C          0.17707000       0.09547000       0.32004150
    16  C          0.82293000       0.90453000       0.67995850
    17  C          0.83727000       0.00367000       0.22461150
    18  C          0.16273000      -0.00367000       0.77538850
    19  H          0.14950000       0.42840000       0.27831000
    20  H          0.85050000       0.57160000       0.72169000
    21  H          0.70250000       0.35240000       0.20811100
    22  H          0.29750000       0.64760000       0.79188900
    23  H          0.40250000       0.67140000       0.25321100
    24  H          0.59750000       0.32860000       0.74678900
    25  H          0.24650000       0.65140000       0.23421100
    26  H          0.75350000       0.34860000       0.76578900
    27  H          0.36550000       0.60040000       0.19971100
    28  H          0.63450000       0.39960000       0.80028900
    29  H          0.17250000       0.97860000       0.30991100
    30  H          0.82750000       0.02140000       0.69008900
    31  H          0.18740000       0.12540000       0.35051100
    32  H          0.81260000       0.87460000       0.64948900
    33  H          0.03950000       0.16140000       0.31671100
    34  H          0.96050000       0.83860000       0.68328900
    35  H          0.92750000       0.07840000       0.20841200
    36  H          0.07250000       0.92160000       0.79158800
    37  H          0.90050000       0.95160000       0.24841100
    38  H          0.09950000       0.04840000       0.75158900
    39  H          0.82050000      -0.01440000       0.19581100
    40  H          0.17950000       0.01440000       0.80418900
    41  N          0.33044000       0.89456000       0.62054100
    42  N          0.66956000       0.10544000       0.37945900
    43  N          0.20274000       0.39394000       0.69925100
    44  N          0.79726000       0.60606000       0.30074900
    45  N          0.28794000       0.51844000       0.36185100
    46  N          0.71206000       0.48156000       0.63814900
    47  N          0.17004000      -0.01567000       0.44563900
    48  N          0.82996000       0.01567000       0.55436100
    49  C          0.30494000       0.04624000       0.61983900
    50  C          0.69506000       0.95376000       0.38016100
    51  C          0.23454000       0.32114000       0.66355110
    52  C          0.76546000       0.67886000       0.33644890
    53  C          0.27064000       0.23533000       0.61851900
    54  C          0.72936000       0.76467000       0.38148100
    55  C          0.26653000       0.33523000       0.57554800
    56  C          0.73347000       0.66477000       0.42445200
    57  C          0.22853000       0.52443000       0.57574900
    58  C          0.77147000       0.47557000       0.42425100
    59  C          0.22004000       0.62193000       0.53409900
    60  C          0.77996000       0.37807000       0.46590100
    61  C          0.25033000       0.54003000       0.48856900
    62  C          0.74967000       0.45997000       0.51143100
    63  C          0.28913000       0.34893000       0.48855900
    64  C          0.71087000       0.65107000       0.51144100
    65  C          0.29563000       0.25093000       0.53023900
    66  C          0.70437000       0.74907000       0.46976100
    67  C          0.24123000       0.64203000       0.44646900
    68  C          0.75877000       0.35797000       0.55353100
    69  C          0.26884000       0.56864000       0.39998100
    70  C          0.73116000       0.43136000       0.60001900
    71  C          0.20064000       0.83124000       0.44621900
    72  C          0.79936000       0.16876000       0.55378100
    73  H          0.20540000       0.58540000       0.60691000
    74  H          0.79460000       0.41460000       0.39309000
    75  H          0.19540000       0.74740000       0.53611100
    76  H          0.80460000       0.25260000       0.46388900
    77  H          0.30440000       0.28940000       0.45741000
    78  H          0.69560000       0.71060000       0.54259000
    79  H          0.32640000       0.11740000       0.52861000
    80  H          0.67360000       0.88260000       0.47139000
    81  N          0.36665000      -0.01714000       0.16654110
    82  N          0.63335000       0.01714000       0.83345890
    83  N          0.48314000       0.48104000       0.09969100
    84  N          0.51686000       0.51896000       0.90030900
    85  C          0.40084000       0.06064000       0.13235120
    86  C          0.59916000       0.93936000       0.86764880
    87  C          0.46664000       0.33805000       0.09479100
    88  C          0.53336000       0.66195000       0.90520900
    89  C          0.44614000       0.15784000       0.08913100
    90  C          0.55386000       0.84216000       0.91086900
    91  C          0.47154000       0.07994000       0.04517100
    92  C          0.52846000       0.92006000       0.95482900
    93  C          0.45754000       0.89696000       0.04115110
    94  C          0.54246000       0.10304000       0.95884890
    95  C          0.51454000       0.17974000       0.00174110
    96  C          0.48546000       0.82026000      -0.00174110
    97  H          0.43140000       0.82960000       0.07111000
    98  H          0.56860000       0.17040000       0.92889000
    99  H          0.52940000       0.30640000       0.00421000
   100  H          0.47060000       0.69360000      -0.00421000
   101  N          0.97236000       0.49594000       0.16805100
   102  N          0.02764000       0.50406000       0.83194900
   103  N          0.94496000       0.00914000       0.09207900
   104  N          0.05504000      -0.00914000       0.90792100
   105  C          0.96626000       0.57664000       0.13273110
   106  C          0.03374000       0.42336000       0.86726890
   107  C          0.95396000       0.85884000       0.09064100
   108  C          0.04604000       0.14116000       0.90935900
   109  C          0.96496000       0.67464000       0.08837100
   110  C          0.03504000       0.32536000       0.91162900
   111  C          0.98107000       0.58793000       0.04446100
   112  C          0.01893000       0.41207000       0.95553900
   113  C          0.98426000       0.40264000       0.04263100
   114  C          0.01574000       0.59736000       0.95736900
   115  C         -0.00284000       0.68144000      -0.00018100
   116  C          0.00284000       0.31856000       0.00018100
   117  H          0.97060000       0.33740000       0.07161000
   118  H          0.02940000       0.66260000       0.92839000
   119  H         -0.00240000       0.81340000       0.00111000
   120  H          0.00240000       0.18660000      -0.00111000
