data_KIZZAW
_symmetry_space_group_name_H-M    'P1'
_symmetry_Int_Tables_number       1
loop_
_symmetry_equiv_pos_site_id
_symmetry_equiv_pos_as_xyz
1 x,y,z
_cell_length_a                   3.759213
_cell_length_b                   27.0829
_cell_length_c                   6.5512
_cell_angle_alpha                90.0
_cell_angle_beta                 90.7358
_cell_angle_gamma                90.0
loop_
_atom_site_label
_atom_site_type_symbol
_atom_site_fract_x
_atom_site_fract_y
_atom_site_fract_z
     1  O         -0.01694000       0.20186800       0.18813000
     2  O          0.01694000       0.70186800       0.81187000
     3  H          0.08410000       0.17621500       0.09260000
     4  H          0.91590000       0.67621500       0.90740000
     5  O          0.25888000       0.38328900       0.79014000
     6  O          0.74112000       0.88328900       0.20986000
     7  N          0.31387000       0.39259100       0.60994000
     8  N          0.68613000       0.89259100       0.39006000
     9  O          0.23157000       0.43171900       0.53004000
    10  O          0.76843000       0.93171900       0.46996000
    11  C          0.77677000       0.28341110       0.24225000
    12  C          0.22323000       0.78341110       0.75775000
    13  O          0.01177000       0.25516900       0.92966000
    14  O         -0.01177000       0.75516900       0.07034000
    15  C          0.69938000       0.27320100       0.44475000
    16  C          0.30062000       0.77320100       0.55525000
    17  H          0.75130000       0.24150000       0.49930000
    18  H          0.24870000       0.74150000       0.50070000
    19  C          0.93538000       0.24535110       0.10435000
    20  C          0.06462000       0.74535110       0.89565000
    21  C          0.55318000       0.36576120       0.28245000
    22  C          0.44682000       0.86576120       0.71755000
    23  H          0.50180000       0.39760000       0.22840000
    24  H          0.49820000       0.89760000       0.77160000
    25  C          0.54728000       0.30878110       0.56735000
    26  C          0.45272000       0.80878110       0.43265000
    27  H          0.49260000       0.30200000       0.70570000
    28  H          0.50740000       0.80200000       0.29430000
    29  C          0.47778000       0.35419100       0.48265000
    30  C          0.52222000       0.85419100       0.51735000
    31  C          0.70499000       0.32976110       0.16395000
    32  C          0.29501000       0.82976110       0.83605000
    33  H          0.76120000       0.33690000       0.02600000
    34  H          0.23880000       0.83690000       0.97400000
    35  N          0.22516000       0.14060900       0.91306000
    36  N          0.77484000       0.64060900       0.08694000
    37  C          0.44018000       0.08056120       0.59345000
    38  C          0.55982000       0.58056120       0.40655000
    39  H          0.51710000       0.06040000       0.48400000
    40  H          0.48290000       0.56040000       0.51600000
    41  C          0.47399000       0.13074120       0.58105000
    42  C          0.52601000       0.63074120       0.41895000
    43  H          0.57140000       0.14590000       0.46360000
    44  H          0.42860000       0.64590000       0.53640000
    45  C          0.29238000       0.05869110       0.76705000
    46  C          0.70762000       0.55869110       0.23295000
    47  C         -0.00031000       0.02002110       0.12295000
    48  C          0.00031000       0.52002110       0.87705000
    49  H          0.90220000       0.00650000       0.24360000
    50  H          0.09780000       0.50650000       0.75640000
    51  C          0.24228000       0.00758120       0.78885000
    52  C          0.75772000       0.50758120       0.21115000
    53  H          0.30640000       0.98600000       0.68120000
    54  H          0.69360000       0.48600000       0.31880000
    55  C          0.03928000       0.07011110       0.10565000
    56  C          0.96072000       0.57011110       0.89435000
    57  H         -0.03300000       0.09110000       0.21350000
    58  H          0.03300000       0.59110000       0.78650000
    59  C          0.18737000       0.09056100       0.92756000
    60  C          0.81263000       0.59056100       0.07244000
    61  C          0.36078000       0.15910130       0.74625000
    62  C          0.63922000       0.65910130       0.25375000
    63  H          0.38340000       0.19400000       0.73710000
    64  H          0.61660000       0.69400000       0.26290000
    65  C          0.10139000       0.98863120       0.96414000
    66  C          0.89861000       0.48863120       0.03586000
    67  H          0.07250000       0.95390000       0.97810000
    68  H          0.92750000       0.45390000       0.02190000
