data_KOBSOJ
_symmetry_space_group_name_H-M    'P1'
_symmetry_Int_Tables_number       1
loop_
_symmetry_equiv_pos_site_id
_symmetry_equiv_pos_as_xyz
1 x,y,z
_cell_length_a                   8.0332
_cell_length_b                   13.0023
_cell_length_c                   9.8953
_cell_angle_alpha                94.322
_cell_angle_beta                 108.122
_cell_angle_gamma                88.903
loop_
_atom_site_label
_atom_site_type_symbol
_atom_site_fract_x
_atom_site_fract_y
_atom_site_fract_z
     1  S          0.59291000       0.63091000       0.60491000
     2  S          0.40709000       0.36909000       0.39509000
     3  N          0.82474000       0.50172000       0.73594000
     4  N          0.17526000       0.49828000       0.26406000
     5  N          0.59444000       0.52272000       0.82523000
     6  N          0.40556000       0.47728000       0.17477000
     7  C          0.67395000       0.54453000       0.73424000
     8  C          0.32605000       0.45547000       0.26576000
     9  C          0.38075000       0.66363000       0.61664000
    10  C          0.61925000       0.33637000       0.38336000
    11  H          0.38764000       0.69992300       0.70933300
    12  H          0.61236000       0.30007700       0.29066700
    13  H          0.34073900       0.70712300       0.55113300
    14  H          0.65926100       0.29287700       0.44886700
    15  H          0.29784000       0.60352400       0.60693200
    16  H          0.70216000       0.39647600       0.39306800
    17  H          0.87634000       0.51132300       0.67053300
    18  H          0.12366000       0.48867700       0.32946700
    19  H          0.88743900       0.45832300       0.79923200
    20  H          0.11256100       0.54167700       0.20076800
    21  H          0.64284000       0.47762300       0.89572300
    22  H          0.35716000       0.52237700       0.10427700
    23  H          0.49274000       0.55552300       0.82993200
    24  H          0.50726000       0.44447700       0.17006800
    25  N          0.03335000       0.35773000       0.94776000
    26  N          0.96665000       0.64227000       0.05224000
    27  N          0.51865000       0.18773000       0.04444000
    28  N          0.48135000       0.81227000       0.95556000
    29  C          0.09335000       0.09163000       0.00033000
    30  C          0.90665000       0.90837000      -0.00033000
    31  C          0.18154000      -0.00443000       0.02754000
    32  C          0.81846000       0.00443000       0.97246000
    33  C          0.90826000       0.09243000       0.97256000
    34  C          0.09174000       0.90757000       0.02744000
    35  C          0.18615000       0.18283000      -0.00184000
    36  C          0.81385000       0.81717000       0.00184000
    37  C          0.10105000       0.27943000       0.97086000
    38  C          0.89895000       0.72057000       0.02914000
    39  C          0.37026000       0.18453000       0.02484000
    40  C          0.62974000       0.81547000       0.97516000
    41  H          0.84876100       0.15682300       0.95846800
    42  H          0.15123900       0.84317700       0.04153200
    43  H          0.30424000      -0.00822300       0.04163200
    44  H          0.69576000       0.00822300       0.95836800
    45  N          0.61835000       0.26043000       0.72324000
    46  N          0.38165000       0.73957000       0.27676000
    47  N          0.13995000       0.43943000       0.64214000
    48  N          0.86005000       0.56057000       0.35786000
    49  N          0.55945000       0.90437000       0.61694000
    50  N          0.44055000       0.09563000       0.38306000
    51  N          0.03414000       0.72348000       0.71444000
    52  N          0.96586000       0.27652000       0.28556000
    53  C          0.18804000       0.17272000       0.67903000
    54  C          0.81196000       0.82728000       0.32097000
    55  C          0.27184000       0.07373000       0.70244000
    56  C          0.72816000       0.92627000       0.29756000
    57  C          0.17805000       0.98767000       0.69904000
    58  C          0.82195000       0.01233000       0.30096000
    59  C         -0.00824000      -0.00883000       0.67233000
    60  C          0.00824000       0.00883000       0.32767000
    61  C          0.90816000       0.09003000       0.64723000
    62  C          0.09184000       0.90997000       0.35277000
    63  C          0.00264000       0.17632000       0.65174000
    64  C         -0.00264000       0.82368000       0.34826000
    65  C          0.28445000       0.26163000       0.68074000
    66  C          0.71555000       0.73837000       0.31926000
    67  C          0.46975000       0.25983000       0.70544000
    68  C          0.53025000       0.74017000       0.29456000
    69  C          0.20355000       0.36003000       0.65914000
    70  C          0.79645000       0.63997000       0.34086000
    71  C          0.97345000       0.80337000       0.69414000
    72  C          0.02655000       0.19663000       0.30586000
    73  C          0.70805000       0.90457000       0.63984000
    74  C          0.29195000       0.09543000       0.36016000
    75  C          0.89466000       0.90327000       0.66934000
    76  C          0.10534000       0.09673000       0.33066000
    77  H          0.39674000       0.06942300       0.71742300
    78  H          0.60326000       0.93057700       0.28257700
    79  H          0.23854000       0.92217700       0.71492300
    80  H          0.76146000       0.07782300       0.28507700
    81  H          0.78356000       0.09362300       0.63363200
    82  H          0.21644000       0.90637700       0.36636800
    83  H          0.94566000       0.24642300       0.64163200
    84  H          0.05434000       0.75357700       0.35836800
    85  O          0.30764000       0.60302000       0.93383000
    86  O          0.69236000       0.39698000       0.06617000
    87  H          0.35324100       0.67242300       0.94973200
    88  H          0.64675900       0.32757700       0.05026800
    89  H          0.21294000       0.61422300       0.87223200
    90  H          0.78706000       0.38577700       0.12776800
