data_KODDOA
_symmetry_space_group_name_H-M    'P1'
_symmetry_Int_Tables_number       1
loop_
_symmetry_equiv_pos_site_id
_symmetry_equiv_pos_as_xyz
1 x,y,z
_cell_length_a                   13.139701
_cell_length_b                   11.98462
_cell_length_c                   14.62062
_cell_angle_alpha                90.0
_cell_angle_beta                 95.90601
_cell_angle_gamma                90.0
loop_
_atom_site_label
_atom_site_type_symbol
_atom_site_fract_x
_atom_site_fract_y
_atom_site_fract_z
     1  Br         0.52676300       0.14464300       0.54280300
     2  Br         0.97323700       0.64464300       0.95719700
     3  Br         0.47323700       0.85535700       0.45719700
     4  Br         0.02676300       0.35535700       0.04280300
     5  N          0.26882000       0.20533000       0.36722000
     6  N          0.23118000       0.70533000       0.13278000
     7  N          0.73118000       0.79467000       0.63278000
     8  N          0.76882000       0.29467000       0.86722000
     9  N          0.23042000       0.11623000       0.60392000
    10  N          0.26958000       0.61623000       0.89608000
    11  N          0.76958000       0.88377000       0.39608000
    12  N          0.73042000       0.38377000       0.10392000
    13  C          0.29053000       0.13963000       0.54062000
    14  C          0.20947000       0.63963000       0.95938000
    15  C          0.70947000       0.86037000       0.45938000
    16  C          0.79053000       0.36037000       0.04062000
    17  C          0.30493000       0.17343000       0.44992000
    18  C          0.19507000       0.67343000       0.05008000
    19  C          0.69507000       0.82657000       0.55008000
    20  C          0.80493000       0.32657000       0.94992000
    21  C          0.34153000       0.23193000       0.29912000
    22  C          0.15847000       0.73193000       0.20088000
    23  C          0.65847000       0.76807000       0.70088000
    24  C          0.84153000       0.26807000       0.79912000
    25  H          0.30116600       0.25600400       0.24238600
    26  H          0.19883400       0.75600400       0.25761400
    27  H          0.69883400       0.74399600       0.75761400
    28  H          0.80116600       0.24399600       0.74238600
    29  C          0.38643000       0.15363000       0.51383000
    30  C          0.11357000       0.65363000       0.98617000
    31  C          0.61357000       0.84637000       0.48617000
    32  C          0.88643000       0.34637000       0.01383000
    33  C          0.27663000       0.09993000       0.69963000
    34  C          0.22337000       0.59993000       0.80037000
    35  C          0.72337000       0.90007000       0.30037000
    36  C          0.77663000       0.40007000       0.19963000
    37  H          0.22073800       0.08692600       0.73786800
    38  H          0.27926200       0.58692600       0.76213200
    39  H          0.77926200       0.91307400       0.26213200
    40  H          0.72073800       0.41307400       0.23786800
    41  C          0.07183000       0.00684000       0.61813000
    42  C          0.42817000       0.50684000       0.88187000
    43  C          0.92817000      -0.00684000       0.38187000
    44  C          0.57183000       0.49316000       0.11813000
    45  H          0.10391900       0.94312500       0.59347500
    46  H          0.39608100       0.44312500       0.90652500
    47  H          0.89608100       0.05687500       0.40652500
    48  H          0.60391900       0.55687500       0.09347500
    49  H         -0.00034500       0.00497100       0.59930600
    50  H          0.50034500       0.50497100       0.90069400
    51  H          0.00034500      -0.00497100       0.40069400
    52  H          0.49965500       0.49502900       0.09930600
    53  H          0.08311700       0.00531300       0.68403200
    54  H          0.41688300       0.50531300       0.81596800
    55  H          0.91688300      -0.00531300       0.31596800
    56  H          0.58311700       0.49468700       0.18403200
    57  C          0.11743000       0.11314000       0.58253000
    58  C          0.38257000       0.61314000       0.91747000
    59  C          0.88257000       0.88686000       0.41747000
    60  C          0.61743000       0.38686000       0.08253000
    61  H          0.10323600       0.11239600       0.51539100
    62  H          0.39676400       0.61239600       0.98460900
    63  H          0.89676400       0.88760400       0.48460900
    64  H          0.60323600       0.38760400       0.01539100
    65  C          0.15713000       0.21424000       0.33973000
    66  C          0.34287000       0.71424000       0.16027000
    67  C          0.84287000       0.78576000       0.66027000
    68  C          0.65713000       0.28576000       0.83973000
    69  H          0.12146300       0.18709800       0.39106000
    70  H          0.37853700       0.68709800       0.10894000
    71  H          0.87853700       0.81290200       0.60894000
    72  H          0.62146300       0.31290200       0.89106000
    73  C          0.41134000       0.32854000       0.33243000
    74  C          0.08866000       0.82854000       0.16757000
    75  C          0.58866000       0.67146000       0.66757000
    76  C          0.91134000       0.17146000       0.83243000
    77  H          0.37048700       0.39069900       0.34816200
    78  H          0.12951300       0.89069900       0.15183800
    79  H          0.62951300       0.60930100       0.65183800
    80  H          0.87048700       0.10930100       0.84816200
    81  H          0.45199000       0.35012800       0.28440700
    82  H          0.04801000       0.85012800       0.21559300
    83  H          0.54801000       0.64987200       0.71559300
    84  H          0.95199000       0.14987200       0.78440700
    85  H          0.45536800       0.30555600       0.38548100
    86  H          0.04463200       0.80555600       0.11451900
    87  H          0.54463200       0.69444400       0.61451900
    88  H          0.95536800       0.19444400       0.88548100
    89  C          0.40034000       0.12814000       0.27663000
    90  C          0.09966000       0.62814000       0.22337000
    91  C          0.59966000       0.87186000       0.72337000
    92  C          0.90034000       0.37186000       0.77663000
    93  H          0.44354400       0.10485200       0.33017300
    94  H          0.05645600       0.60485200       0.16982700
    95  H          0.55645600       0.89514800       0.66982700
    96  H          0.94354400       0.39514800       0.83017300
    97  H          0.44154700       0.14433100       0.22778000
    98  H          0.05845300       0.64433100       0.27222000
    99  H          0.55845300       0.85566900       0.77222000
   100  H          0.94154700       0.35566900       0.72778000
   101  H          0.35297700       0.06942800       0.25777500
   102  H          0.14702300       0.56942800       0.24222500
   103  H          0.64702300       0.93057200       0.74222500
   104  H          0.85297700       0.43057200       0.75777500
   105  C          0.34504000      -0.00324000       0.70683000
   106  C          0.15496000       0.49676000       0.79317000
   107  C          0.65496000       0.00324000       0.29317000
   108  C          0.84504000       0.50324000       0.20683000
   109  H          0.30752200       0.93390800       0.68043900
   110  H          0.19247800       0.43390800       0.81956100
   111  H          0.69247800       0.06609200       0.31956100
   112  H          0.80752200       0.56609200       0.18043900
   113  H          0.36687200       0.98198000       0.77036200
   114  H          0.13312800       0.48198000       0.72963800
   115  H          0.63312800       0.01802000       0.22963800
   116  H          0.86687200       0.51802000       0.27036200
   117  H          0.40377800       0.00977500       0.67433000
   118  H          0.09622200       0.50977500       0.82567000
   119  H          0.59622200      -0.00977500       0.32567000
   120  H          0.90377800       0.49022500       0.17433000
   121  C          0.33314000       0.20484000       0.73513000
   122  C          0.16686000       0.70484000       0.76487000
   123  C          0.66686000       0.79516000       0.26487000
   124  C          0.83314000       0.29516000       0.23513000
   125  H          0.39139400       0.21656000       0.70165600
   126  H          0.10860600       0.71656000       0.79834400
   127  H          0.60860600       0.78344000       0.29834400
   128  H          0.89139400       0.28344000       0.20165600
   129  H          0.35555200       0.19617000       0.79929100
   130  H          0.14444800       0.69617000       0.70070900
   131  H          0.64444800       0.80383000       0.20070900
   132  H          0.85555200       0.30383000       0.29929100
   133  H          0.28808700       0.26790000       0.72670200
   134  H          0.21191300       0.76790000       0.77329800
   135  H          0.71191300       0.73210000       0.27329800
   136  H          0.78808700       0.23210000       0.22670200
   137  C          0.12474000       0.14164000       0.25643000
   138  C          0.37526000       0.64164000       0.24357000
   139  C          0.87526000       0.85836000       0.74357000
   140  C          0.62474000       0.35836000       0.75643000
   141  H          0.15356800       0.17075800       0.20368000
   142  H          0.34643200       0.67075800       0.29632000
   143  H          0.84643200       0.82924200       0.79632000
   144  H          0.65356800       0.32924200       0.70368000
   145  H          0.05142100       0.14143200       0.24503600
   146  H          0.44857900       0.64143200       0.25496400
   147  H          0.94857900       0.85856800       0.75496400
   148  H          0.55142100       0.35856800       0.74503600
   149  H          0.14860600       0.06669900       0.26804100
   150  H          0.35139400       0.56669900       0.23195900
   151  H          0.85139400       0.93330100       0.73195900
   152  H          0.64860600       0.43330100       0.76804100
   153  C          0.06903000       0.21824000       0.61684000
   154  C          0.43097000       0.71824000       0.88316000
   155  C          0.93097000       0.78176000       0.38316000
   156  C          0.56903000       0.28176000       0.11684000
   157  H          0.08678000       0.22530200       0.68187800
   158  H          0.41322000       0.72530200       0.81812200
   159  H          0.91322000       0.77469800       0.31812200
   160  H          0.58678000       0.27469800       0.18187800
   161  H         -0.00401400       0.21364900       0.60407000
   162  H          0.50401400       0.71364900       0.89593000
   163  H          0.00401400       0.78635100       0.39593000
   164  H          0.49598600       0.28635100       0.10407000
   165  H          0.09368500       0.28200300       0.58608800
   166  H          0.40631500       0.78200300       0.91391200
   167  H          0.90631500       0.71799700       0.41391200
   168  H          0.59368500       0.21799700       0.08608800
   169  C          0.12784000       0.33604000       0.32304000
   170  C          0.37216000       0.83604000       0.17696000
   171  C          0.87216000       0.66396000       0.67696000
   172  C          0.62784000       0.16396000       0.82304000
   173  H          0.14940400       0.37893300       0.37696000
   174  H          0.35059600       0.87893300       0.12304000
   175  H          0.85059600       0.62106700       0.62304000
   176  H          0.64940400       0.12106700       0.87696000
   177  H          0.05488600       0.34180600       0.30964100
   178  H          0.44511400       0.84180600       0.19035900
   179  H          0.94511400       0.65819400       0.69035900
   180  H          0.55488600       0.15819400       0.80964100
   181  H          0.16049200       0.36397200       0.27192800
   182  H          0.33950800       0.86397200       0.22807200
   183  H          0.83950800       0.63602800       0.72807200
   184  H          0.66049200       0.13602800       0.77192800
   185  Br         0.76971300       0.10337300       0.58314300
   186  Br         0.73028700       0.60337300       0.91685700
   187  Br         0.23028700       0.89662700       0.41685700
   188  Br         0.26971300       0.39662700       0.08314300
   189  Br         0.63257500       0.54813500       0.41472400
   190  Br         0.86742500       0.04813500       0.08527600
   191  Br         0.36742500       0.45186500       0.58527600
   192  Br         0.13257500       0.95186500       0.91472400
   193  Br         0.87952600       0.43614700       0.48019500
   194  Br         0.62047400       0.93614700       0.01980500
   195  Br         0.12047400       0.56385300       0.51980500
   196  Br         0.37952600       0.06385300       0.98019500
   197  C          0.75975000       0.40476000       0.53624000
   198  C          0.74025000       0.90476000       0.96376000
   199  C          0.24025000       0.59524000       0.46376000
   200  C          0.25975000       0.09524000       0.03624000
   201  H          0.76708800       0.33199400       0.56520800
   202  H          0.73291200       0.83199400       0.93479200
   203  H          0.23291200       0.66800600       0.43479200
   204  H          0.26708800       0.16800600       0.06520800
   205  H          0.75319300       0.45935000       0.58417500
   206  H          0.74680700       0.95935000       0.91582500
   207  H          0.24680700       0.54065000       0.41582500
   208  H          0.25319300       0.04065000       0.08417500
   209  C          0.66626000       0.40546000       0.47366000
   210  C          0.83374000       0.90546000       0.02634000
   211  C          0.33374000       0.59454000       0.52634000
   212  C          0.16626000       0.09454000       0.97366000
   213  H          0.60982000       0.38300400       0.50743600
   214  H          0.89018000       0.88300400      -0.00743600
   215  H          0.39018000       0.61699600       0.49256400
   216  H          0.10982000       0.11699600       0.00743600
   217  H          0.67246800       0.34993200       0.42614500
   218  H          0.82753200       0.84993200       0.07385500
   219  H          0.32753200       0.65006800       0.57385500
   220  H          0.17246800       0.15006800       0.92614500
