data_KODXUY
_symmetry_space_group_name_H-M    'P1'
_symmetry_Int_Tables_number       1
loop_
_symmetry_equiv_pos_site_id
_symmetry_equiv_pos_as_xyz
1 x,y,z
_cell_length_a                   7.47422
_cell_length_b                   8.34873
_cell_length_c                   11.85184
_cell_angle_alpha                82.8802
_cell_angle_beta                 79.4802
_cell_angle_gamma                69.0681
loop_
_atom_site_label
_atom_site_type_symbol
_atom_site_fract_x
_atom_site_fract_y
_atom_site_fract_z
     1  S          0.96309200       0.19027600       0.27225500
     2  S          0.03690800       0.80972400       0.72774500
     3  N          0.90108000       0.06122000       0.37125140
     4  N          0.09892000       0.93878000       0.62874860
     5  C          0.96878000       0.90492000       0.32798150
     6  C          0.03122000       0.09508000       0.67201850
     7  N          0.07582000       0.06152190       0.17109140
     8  N          0.92418000       0.93847810       0.82890860
     9  C          0.06852000       0.90642000       0.21240150
    10  C          0.93148000       0.09358000       0.78759850
    11  N          0.24532000       0.76132000       0.04131140
    12  N          0.75468000       0.23868000       0.95868860
    13  H          0.29660000       0.67000000       0.00360000
    14  H          0.70340000       0.33000000      -0.00360000
    15  H          0.25360000       0.85750000       0.01000000
    16  H          0.74640000       0.14250000      -0.01000000
    17  C          0.15103000       0.75352000       0.15034160
    18  C          0.84897000       0.24648000       0.84965840
    19  C          0.12843000       0.60762000       0.20919170
    20  C          0.87157000       0.39238000       0.79080830
    21  H          0.17960000       0.50490000       0.17270000
    22  H          0.82040000       0.49510000       0.82730000
    23  C          0.03023000       0.60783000       0.32313170
    24  C          0.96977000       0.39217000       0.67686830
    25  H          0.01990000       0.50490000       0.35830000
    26  H          0.98010000       0.49510000       0.64170000
    27  C          0.94987000       0.75123000       0.38406170
    28  C          0.05013000       0.24877000       0.61593830
    29  H          0.88570000       0.74790000       0.45890000
    30  H          0.11430000       0.25210000       0.54110000
    31  S          0.77431700       0.71654600       0.01633400
    32  S          0.22568300       0.28345400       0.98366600
    33  O          0.54662000       0.19170180       0.19312130
    34  O          0.45338000       0.80829820       0.80687870
    35  N          0.70812000       0.58134190       0.10701140
    36  N          0.29188000       0.41865810       0.89298860
    37  C          0.61192000       0.66662000       0.20185160
    38  C          0.38808000       0.33338000       0.79814840
    39  O          0.40272000       0.20675190       0.36670140
    40  O          0.59728000       0.79324810       0.63329860
    41  N          0.68892000       0.88696190       0.08725130
    42  N          0.31108000       0.11303810       0.91274870
    43  C          0.60152000       0.84302000       0.19001150
    44  C          0.39848000       0.15698000       0.80998850
    45  N          0.48252000       0.12697190       0.28080140
    46  N          0.51748000       0.87302810       0.71919860
    47  C          0.50342000       0.94522000       0.28533150
    48  C          0.49658000       0.05478000       0.71466850
    49  C          0.42532000       0.87422000       0.38303160
    50  C          0.57468000       0.12578000       0.61696840
    51  H          0.36240000       0.94160000       0.44500000
    52  H          0.63760000       0.05840000       0.55500000
    53  C          0.43813000       0.70063000       0.39176170
    54  C          0.56187000       0.29937000       0.60823830
    55  H          0.38360000       0.65600000       0.45950000
    56  H          0.61640000       0.34400000       0.54050000
    57  C          0.52813000       0.59712000       0.30383170
    58  C          0.47187000       0.40288000       0.69616830
    59  H          0.53450000       0.48310000       0.31040000
    60  H          0.46550000       0.51690000       0.68960000
