data_KOJWOZ
_symmetry_space_group_name_H-M    'P1'
_symmetry_Int_Tables_number       1
loop_
_symmetry_equiv_pos_site_id
_symmetry_equiv_pos_as_xyz
1 x,y,z
_cell_length_a                   6.88335
_cell_length_b                   7.27055
_cell_length_c                   17.72749
_cell_angle_alpha                93.9115
_cell_angle_beta                 96.5195
_cell_angle_gamma                117.4997
loop_
_atom_site_label
_atom_site_type_symbol
_atom_site_fract_x
_atom_site_fract_y
_atom_site_fract_z
     1  Cl         0.08107100       0.85826100       0.63245300
     2  Cl         0.91892900       0.14173900       0.36754700
     3  O          0.80462000       0.08152000       0.97352700
     4  O          0.19538000       0.91848000       0.02647300
     5  H          0.75200000       0.16140000       0.96760000
     6  H          0.24800000       0.83860000       0.03240000
     7  O          0.87613000       0.84942000       0.89954800
     8  O          0.12387000       0.15058000       0.10045200
     9  H         -0.03410000       0.87950000       0.93890000
    10  H          0.03410000       0.12050000       0.06110000
    11  C          0.58633000       0.93263000       0.83600100
    12  C          0.41367000       0.06737000       0.16399900
    13  C          0.27033000       0.97313000       0.78104120
    14  C          0.72967000       0.02687000       0.21895880
    15  H          0.16380000       0.01540000       0.78710000
    16  H          0.83620000      -0.01540000       0.21290000
    17  C          0.58434000       0.84583000       0.76314110
    18  C          0.41566000       0.15417000       0.23685890
    19  H          0.68920000       0.80180000       0.75660000
    20  H          0.31080000       0.19820000       0.24340000
    21  C          0.27663000       0.88733000       0.71023110
    22  C          0.72337000       0.11267000       0.28976890
    23  C          0.42473000      -0.00467000       0.84297110
    24  C          0.57527000       0.00467000       0.15702890
    25  H          0.42080000       0.05370000       0.89070000
    26  H          0.57920000       0.94630000       0.10930000
    27  C          0.43244000       0.82263000       0.70022120
    28  C          0.56756000       0.17737000       0.29977880
    29  H          0.43530000       0.76460000       0.65220000
    30  H          0.56470000       0.23540000       0.34780000
    31  B          0.76134000       0.95703000       0.90564120
    32  B          0.23866000       0.04297000       0.09435880
    33  O          0.59462000       0.37692000       0.66423700
    34  O          0.40538000       0.62308000       0.33576300
    35  O          0.28682000       0.58532000       0.00533800
    36  O          0.71318000       0.41468000      -0.00533800
    37  O          0.36123000       0.22223000       0.47298900
    38  O          0.63877000       0.77777000       0.52701100
    39  O          0.26643000       0.35353000       0.56657100
    40  O          0.73357000       0.64647000       0.43342900
    41  N          0.06323000       0.51383000       0.89232900
    42  N          0.93677000       0.48617000       0.10767100
    43  H         -0.01460000       0.56150000       0.91290000
    44  H          0.01460000       0.43850000       0.08710000
    45  N          0.01033000       0.43892000       0.81593900
    46  N         -0.01033000       0.56108000       0.18406100
    47  N          0.34963000       0.43523000       0.90109100
    48  N          0.65037000       0.56477000       0.09890900
    49  H          0.46220000       0.43250000       0.92650000
    50  H          0.53780000       0.56750000       0.07350000
    51  H          0.30940000       0.38720000       0.85310000
    52  H          0.69060000       0.61280000       0.14690000
    53  N          0.38613000       0.29333000       0.54021100
    54  N          0.61387000       0.70667000       0.45978900
    55  C          0.86574000       0.29844000       0.64644120
    56  C          0.13426000       0.70156000       0.35355880
    57  H         -0.00930000       0.27970000       0.65590000
    58  H          0.00930000       0.72030000       0.34410000
    59  C          0.23843000       0.51293000       0.93584100
    60  C          0.76157000       0.48707000       0.06415900
    61  C          0.77953000       0.37083000       0.69859110
    62  C          0.22047000       0.62917000       0.30140890
    63  C          0.84233000       0.44383000       0.77961110
    64  C          0.15767000       0.55617000       0.22038890
    65  H          0.76150000       0.49370000       0.80500000
    66  H          0.23850000       0.50630000       0.19500000
    67  C          0.57053000       0.30613000       0.58975110
    68  C          0.42947000       0.69387000       0.41024890
    69  C          0.73024000       0.25714000       0.57540120
    70  C          0.26976000       0.74286000       0.42459880
    71  H          0.74710000       0.20640000       0.52830000
    72  H          0.25290000       0.79360000       0.47170000
