data_KOKZAP
_symmetry_space_group_name_H-M    'P1'
_symmetry_Int_Tables_number       1
loop_
_symmetry_equiv_pos_site_id
_symmetry_equiv_pos_as_xyz
1 x,y,z
_cell_length_a                   10.74384
_cell_length_b                   9.71033
_cell_length_c                   14.46445
_cell_angle_alpha                90.0
_cell_angle_beta                 110.9232
_cell_angle_gamma                90.0
loop_
_atom_site_label
_atom_site_type_symbol
_atom_site_fract_x
_atom_site_fract_y
_atom_site_fract_z
     1  Cl         0.87027600       0.08196700       0.67830500
     2  Cl         0.12972400       0.58196700       0.32169500
     3  O          0.52123170       0.77042000       0.92218120
     4  O          0.47876830       0.27042000       0.07781880
     5  O          0.34638180       0.44802000       0.94140130
     6  O          0.65361820       0.94802000       0.05859870
     7  H          0.38830000       0.38440000       0.98420000
     8  H          0.61170000       0.88440000       0.01580000
     9  O          0.52514170       0.44962000       0.89621120
    10  O          0.47485830       0.94962000       0.10378880
    11  N          0.42382000       0.67172000       0.77269160
    12  N          0.57618000       0.17172000       0.22730840
    13  H          0.43630000       0.64730000       0.72020000
    14  H          0.56370000       0.14730000       0.27980000
    15  C          0.51402000       0.75673000       0.83494180
    16  C          0.48598000       0.25673000       0.16505820
    17  C          0.60283000       0.83263000       0.79342190
    18  C          0.39717000       0.33263000       0.20657810
    19  C          0.72573000       0.87863000       0.85781180
    20  C          0.27427000       0.37863000       0.14218820
    21  H          0.75209500       0.85873200       0.92646000
    22  H          0.24790500       0.35873200       0.07354000
    23  C          0.81033000       0.95333000       0.82321180
    24  C          0.18967000       0.45333000       0.17678820
    25  H          0.89427500       0.98455400       0.86739400
    26  H          0.10572500       0.48455400       0.13260600
    27  C          0.76943000       0.98153000       0.72233190
    28  C          0.23057000       0.48153000       0.27766810
    29  C          0.64973000       0.93493000       0.65672180
    30  C          0.35027000       0.43493000       0.34327820
    31  H          0.62472800       0.95360100       0.58799800
    32  H          0.37527200       0.45360100       0.41200200
    33  C          0.56543000       0.86013000       0.69193190
    34  C          0.43457000       0.36013000       0.30806810
    35  H          0.48232800       0.82752600       0.64714300
    36  H          0.51767200       0.32752600       0.35285700
    37  C          0.41373000       0.48933000       0.88581170
    38  C          0.58627000      -0.01067000       0.11418830
    39  C          0.33452000       0.59113000       0.80658160
    40  C          0.66548000       0.09113000       0.19341840
    41  H          0.28527000       0.65482400       0.83574300
    42  H          0.71473000       0.15482400       0.16425700
    43  C          0.23263000       0.51563000       0.71735180
    44  C          0.76737000       0.01563000       0.28264820
    45  H          0.28104000       0.46293700       0.68214900
    46  H          0.71896000       0.96293700       0.31785100
    47  H          0.18149800       0.44920600       0.74173200
    48  H          0.81850200       0.94920600       0.25826800
    49  C          0.13702000       0.61443000       0.64579180
    50  C          0.86298000       0.11443000       0.35420820
    51  C          0.01593000       0.64633000       0.65642000
    52  C         -0.01593000       0.14633000       0.34358000
    53  H         -0.00600000       0.60355000       0.70763900
    54  H          0.00600000       0.10355000       0.29236100
    55  C          0.92707000       0.73883000       0.59382000
    56  C          0.07293000       0.23883000       0.40618000
    57  H          0.84504100       0.75830400       0.60202800
    58  H          0.15495900       0.25830400       0.39797200
    59  C          0.95837000       0.80303000       0.51902000
    60  C          0.04163000       0.30303000       0.48098000
    61  H          0.89870700       0.86787200       0.47672900
    62  H          0.10129300       0.36787200       0.52327100
    63  C          0.07733000       0.77153000       0.50672190
    64  C          0.92267000       0.27153000       0.49327810
    65  H          0.09884700       0.81481900       0.45548900
    66  H          0.90115300       0.31481900       0.54451100
    67  C          0.16513000       0.67723000       0.56860190
    68  C          0.83487000       0.17723000       0.43139810
    69  H          0.24531400       0.65514400       0.55832700
    70  H          0.75468600       0.15514400       0.44167300
    71  Cl         0.16445600       0.91776300       0.85702500
    72  Cl         0.83554400       0.41776300       0.14297500
    73  O          0.48298180       0.22212000       0.58541130
    74  O          0.51701820       0.72212000       0.41458870
    75  O          0.63547190       0.53212000       0.54080130
    76  O          0.36452810       0.03212000       0.45919870
    77  H          0.59530000       0.58840000       0.50120000
    78  H          0.40470000       0.08840000       0.49880000
    79  O          0.46897170       0.55292000       0.59873120
    80  O          0.53102830       0.05292000       0.40126880
    81  N          0.57832000       0.33452000       0.72886160
    82  N          0.42168000       0.83452000       0.27113840
    83  H          0.57330000       0.35340000       0.78120000
    84  H          0.42670000       0.85340000       0.21880000
    85  C          0.49312000       0.24163000       0.67328180
    86  C          0.50688000       0.74163000       0.32671820
    87  C          0.41153000       0.16213000       0.72041190
    88  C          0.58847000       0.66213000       0.27958810
    89  C          0.29392000       0.09933000       0.66027180
    90  C          0.70608000       0.59933000       0.33972820
    91  H          0.26616300       0.10813000       0.59039700
    92  H          0.73383700       0.60813000       0.40960300
    93  C          0.21683000       0.02393000       0.70158190
    94  C          0.78317000       0.52393000       0.29841810
    95  H          0.13697200       0.98039500       0.66053700
    96  H          0.86302800       0.48039500       0.33946300
    97  C          0.25833000       0.01343000       0.80333190
    98  C          0.74167000       0.51343000       0.19666810
    99  C          0.37443000       0.07563000       0.86516180
   100  C          0.62557000       0.57563000       0.13483820
   101  H          0.40063900       0.06799800       0.93501900
   102  H          0.59936100       0.56799800       0.06498100
   103  C          0.45163000       0.14923000       0.82313190
   104  C          0.54837000       0.64923000       0.17686810
   105  H          0.53221100       0.19110200       0.86448400
   106  H          0.46778900       0.69110200       0.13551600
   107  C          0.57613000       0.50593000       0.60433170
   108  C          0.42387000       0.00593000       0.39566830
   109  C          0.66162000       0.41503000       0.68897170
   110  C          0.33838000       0.91503000       0.31102830
   111  H          0.71533800       0.35114400       0.66382000
   112  H          0.28466200       0.85114400       0.33618000
   113  C          0.75652000       0.50873000       0.76925180
   114  C          0.24348000       0.00873000       0.23074820
   115  H          0.77836600       0.58976500       0.73636800
   116  H          0.22163400       0.08976500       0.26363200
   117  H          0.70855100       0.54270100       0.81180300
   118  H          0.29144900       0.04270100       0.18819700
   119  C          0.88733000       0.44243000       0.83576180
   120  C          0.11267000       0.94243000       0.16423820
   121  H          0.93614500       0.40934800       0.79268600
   122  H          0.06385500       0.90934800       0.20731400
   123  C          0.86603000       0.31993000       0.89422000
   124  C          0.13397000       0.81993000       0.10578000
   125  H          0.81631600       0.34974600       0.93584600
   126  H          0.18368400       0.84974600       0.06415400
   127  H          0.95255300       0.28276300       0.93614000
   128  H          0.04744700       0.78276300       0.06386000
   129  H          0.81533100       0.24852400       0.84827400
   130  H          0.18466900       0.74852400       0.15172600
   131  C          0.97353000       0.55173000       0.90642000
   132  C          0.02647000       0.05173000       0.09358000
   133  H          0.93213600       0.57813600       0.95416500
   134  H          0.06786400       0.07813600       0.04583500
   135  H          0.98088800       0.63283600       0.86836200
   136  H          0.01911200       0.13283600       0.13163800
   137  H          0.06245800       0.51399700       0.94170500
   138  H          0.93754200       0.01399700       0.05829500
