data_KOLCOH
_symmetry_space_group_name_H-M    'P1'
_symmetry_Int_Tables_number       1
loop_
_symmetry_equiv_pos_site_id
_symmetry_equiv_pos_as_xyz
1 x,y,z
_cell_length_a                   10.88246
_cell_length_b                   10.02176
_cell_length_c                   14.43258
_cell_angle_alpha                90.0
_cell_angle_beta                 111.0032
_cell_angle_gamma                90.0
loop_
_atom_site_label
_atom_site_type_symbol
_atom_site_fract_x
_atom_site_fract_y
_atom_site_fract_z
     1  O          0.40212190       0.78142000       0.91892140
     2  O          0.59787810       0.28142000       0.08107860
     3  O          0.58651190       0.46282000       0.95039150
     4  O          0.41348810       0.96282000       0.04960850
     5  H          0.58640000       0.39750000      -0.00770000
     6  H          0.41360000       0.89750000       0.00770000
     7  O          0.36605180       0.45681190       0.89905140
     8  O          0.63394820       0.95681190       0.10094860
     9  N          0.35282000       0.67352000       0.77437180
    10  N          0.64718000       0.17352000       0.22562820
    11  H          0.29530000       0.65440000       0.72330000
    12  H          0.70470000       0.15440000       0.27670000
    13  C          0.32493000       0.76413000       0.83242000
    14  C          0.67507000       0.26413000       0.16758000
    15  C          0.19963000       0.84053000       0.78682000
    16  C          0.80037000       0.34053000       0.21318000
    17  C          0.14813000       0.90983000       0.84889190
    18  C          0.85187000       0.40983000       0.15110810
    19  H          0.19239000       0.90686000       0.91879900
    20  H          0.80761000       0.40686000       0.08120100
    21  C          0.03233000       0.98303000       0.80872000
    22  C          0.96767000       0.48303000       0.19128000
    23  H         -0.00129300       0.03027000       0.85151800
    24  H          0.00129300       0.53027000       0.14848200
    25  C          0.96517000      -0.01207000       0.70652000
    26  C          0.03483000       0.48793000       0.29348000
    27  C          0.01593000       0.91713000       0.64539190
    28  C         -0.01593000       0.41713000       0.35460810
    29  H          0.97000500       0.91768000       0.57564100
    30  H          0.02999500       0.41768000       0.42435900
    31  C          0.13253000       0.84563000       0.68462000
    32  C          0.86747000       0.34563000       0.31538000
    33  H          0.16674600       0.79992200       0.64147700
    34  H          0.83325400       0.29992200       0.35852300
    35  C          0.46723000       0.49773000       0.89265190
    36  C          0.53277000      -0.00227000       0.10734810
    37  C          0.47303000       0.59563000       0.81262000
    38  C          0.52697000       0.09563000       0.18738000
    39  H          0.54917800       0.65744700       0.84222700
    40  H          0.45082200       0.15744700       0.15777300
    41  C          0.49283000       0.51723000       0.72702000
    42  C          0.50717000       0.01723000       0.27298000
    43  H          0.56584600       0.45286800       0.75489500
    44  H          0.43415400       0.95286800       0.24510500
    45  H          0.41194000       0.46579100       0.69130700
    46  H          0.58806000       0.96579100       0.30869300
    47  C          0.52353000       0.60803000       0.65452000
    48  C          0.47647000       0.10803000       0.34548000
    49  C          0.65233000       0.65133000       0.67452000
    50  C          0.34767000       0.15133000       0.32548000
    51  H          0.72027800       0.62264600       0.73340100
    52  H          0.27972200       0.12264600       0.26659900
    53  C          0.68263000       0.73583000       0.60953000
    54  C          0.31737000       0.23583000       0.39047000
    55  H          0.77091600       0.76383200       0.62374300
    56  H          0.22908400       0.26383200       0.37625700
    57  C          0.58414000       0.77913000       0.52393000
    58  C          0.41586000       0.27913000       0.47607000
    59  H          0.60464300       0.83715300       0.47943500
    60  H          0.39535700       0.33715300       0.52056500
    61  C          0.45543000       0.73764000       0.50302000
    62  C          0.54457000       0.23764000       0.49698000
    63  H          0.38773700       0.76780500       0.44440900
    64  H          0.61226300       0.26780500       0.55559100
    65  C          0.42523000       0.65173000       0.56772000
    66  C          0.57477000       0.15173000       0.43228000
    67  H          0.33701100       0.62278300       0.55256500
    68  H          0.66298900       0.12278300       0.44743500
    69  C          0.84077000       0.06973000       0.66182000
    70  C          0.15923000       0.56973000       0.33818000
    71  H          0.84698500       0.12373700       0.60705400
    72  H          0.15301500       0.62373700       0.39294600
    73  H          0.83013200       0.12833500       0.71270100
    74  H          0.16986800       0.62833500       0.28729900
    75  H          0.76479900       0.00979500       0.63669300
    76  H          0.23520100       0.50979500       0.36330700
    77  Cl         0.68080700       0.92899100       0.83629600
    78  Cl         0.31919300       0.42899100       0.16370400
    79  O          0.09725190       0.22252000       0.58440140
    80  O          0.90274810       0.72252000       0.41559860
    81  O          0.92235810       0.55082000       0.55502150
    82  O          0.07764190       0.05082000       0.44497850
    83  H          0.92360000       0.59950000       0.50930000
    84  H          0.07640000       0.09950000       0.49070000
    85  O          0.14284180       0.54795190       0.60049140
    86  O          0.85715820       0.04795190       0.39950860
    87  N          0.15512000       0.33513000       0.72775180
    88  N          0.84488000       0.83513000       0.27224820
    89  H          0.21930000       0.36040000       0.78430000
    90  H          0.78070000       0.86040000       0.21570000
    91  C          0.17753000       0.24063000       0.67022000
    92  C          0.82247000       0.74063000       0.32978000
    93  C          0.30143000       0.16113000       0.71282000
    94  C          0.69857000       0.66113000       0.28718000
    95  C          0.34823000       0.08943000       0.65012000
    96  C          0.65177000       0.58943000       0.34988000
    97  H          0.30006400       0.08994500       0.58067000
    98  H          0.69993600       0.58994500       0.41933000
    99  C          0.46413000       0.01703000       0.68732000
   100  C          0.53587000       0.51703000       0.31268000
   101  H          0.49538700       0.96799200       0.64384700
   102  H          0.50461300       0.46799200       0.35615300
   103  C          0.53373000       0.01703000       0.78852000
   104  C          0.46627000       0.51703000       0.21148000
   105  C          0.48903000       0.08693000       0.85302000
   106  C          0.51097000       0.58693000       0.14698000
   107  H          0.53795400       0.08618900       0.92232300
   108  H          0.46204600       0.58618900       0.07767700
   109  C          0.37223000       0.15783000       0.81532000
   110  C          0.62777000       0.65783000       0.18468000
   111  H          0.33985400       0.20446200       0.85922100
   112  H          0.66014600       0.70446200       0.14077900
   113  C          0.04183000       0.51213000       0.61092000
   114  C          0.95817000       0.01213000       0.38908000
   115  C          0.03742000       0.41583000       0.69173190
   116  C          0.96258000       0.91583000       0.30826810
   117  H          0.96019900       0.35515500       0.66252300
   118  H          0.03980100       0.85515500       0.33747700
   119  C          0.01963000       0.49213000       0.77832000
   120  C          0.98037000      -0.00787000       0.22168000
   121  H          0.10184900       0.54058200       0.81534900
   122  H          0.89815100       0.04058200       0.18465100
   123  H          0.94847000       0.55884100       0.75170400
   124  H          0.05153000       0.05884100       0.24829600
   125  C         -0.01433000       0.39923000       0.84842000
   126  C          0.01433000       0.89923000       0.15158000
   127  C          0.85567000       0.35903000       0.82673000
   128  C          0.14433000       0.85903000       0.17327000
   129  H          0.78866500       0.39199800       0.76879600
   130  H          0.21133500       0.89199800       0.23120400
   131  C          0.82257000       0.27023000       0.88933000
   132  C          0.17743000       0.77023000       0.11067000
   133  H          0.73374400       0.24380400       0.87444200
   134  H          0.26625600       0.74380400       0.12555800
   135  C          0.92076000       0.22173000       0.97283000
   136  C          0.07924000       0.72173000       0.02717000
   137  H          0.89947600       0.16193800       0.01593400
   138  H          0.10052400       0.66193800       0.98406600
   139  C          0.04974000       0.25974000      -0.00628000
   140  C          0.95026000       0.75974000       0.00628000
   141  H          0.11694100       0.22494900       0.05074800
   142  H          0.88305900       0.72494900       0.94925200
   143  C          0.08213000       0.34863000       0.93212000
   144  C          0.91787000       0.84863000       0.06788000
   145  H          0.17117000       0.37460200       0.94759600
   146  H          0.82883000       0.87460200       0.05240400
