data_KOLDAU
_symmetry_space_group_name_H-M    'P1'
_symmetry_Int_Tables_number       1
loop_
_symmetry_equiv_pos_site_id
_symmetry_equiv_pos_as_xyz
1 x,y,z
_cell_length_a                   10.75995
_cell_length_b                   9.79435
_cell_length_c                   14.52736
_cell_angle_alpha                90.0
_cell_angle_beta                 111.6493
_cell_angle_gamma                90.0
loop_
_atom_site_label
_atom_site_type_symbol
_atom_site_fract_x
_atom_site_fract_y
_atom_site_fract_z
     1  Cl         0.86878800       0.07174900       0.68191600
     2  Cl         0.13121200       0.57174900       0.31808400
     3  O          0.51712000       0.76182000       0.92068140
     4  O          0.48288000       0.26182000       0.07931860
     5  O          0.34982000       0.43323000       0.93772160
     6  O          0.65018000       0.93323000       0.06227840
     7  H          0.39740000       0.37650000       0.98430000
     8  H          0.60260000       0.87650000       0.01570000
     9  O          0.53182000       0.44182000       0.89708140
    10  O          0.46818000       0.94182000       0.10291860
    11  N          0.42513000       0.65993000       0.77215180
    12  N          0.57487000       0.15993000       0.22784820
    13  H          0.43730000       0.63540000       0.71930000
    14  H          0.56270000       0.13540000       0.28070000
    15  C          0.51193000       0.74773000       0.83442000
    16  C          0.48807000       0.24773000       0.16558000
    17  C          0.60003000       0.82523000       0.79382000
    18  C          0.39997000       0.32523000       0.20618000
    19  C          0.72283000       0.87333000       0.85962000
    20  C          0.27717000       0.37333000       0.14038000
    21  H          0.74908500       0.85477400       0.92833100
    22  H          0.25091500       0.35477400       0.07166900
    23  C          0.80673000       0.94764000       0.82572000
    24  C          0.19327000       0.44764000       0.17428000
    25  H          0.89021500       0.98011600       0.87067500
    26  H          0.10978500       0.48011600       0.12932500
    27  C          0.76703000       0.97393000       0.72492000
    28  C          0.23297000       0.47393000       0.27508000
    29  C          0.64683000       0.92583000       0.65802000
    30  C          0.35317000       0.42583000       0.34198000
    31  H          0.62187200       0.94324900       0.58919100
    32  H          0.37812800       0.44324900       0.41080900
    33  C          0.56263000       0.85123000       0.69272000
    34  C          0.43737000       0.35123000       0.30728000
    35  H          0.47954300       0.81813700       0.64739500
    36  H          0.52045700       0.31813700       0.35260500
    37  C          0.41843000       0.47743000       0.88462000
    38  C          0.58157000       0.97743000       0.11538000
    39  C          0.33713000       0.57813000       0.80448190
    40  C          0.66287000       0.07813000       0.19551810
    41  H          0.28698700       0.64010100       0.83326400
    42  H          0.71301300       0.14010100       0.16673600
    43  C          0.23533000       0.50323000       0.71462000
    44  C          0.76467000       0.00323000       0.28538000
    45  H          0.28387100       0.45249000       0.67928300
    46  H          0.71612900       0.95249000       0.32071700
    47  H          0.18479600       0.43617800       0.73813900
    48  H          0.81520400       0.93617800       0.26186100
    49  C          0.13863000       0.60233000       0.64382000
    50  C          0.86137000       0.10233000       0.35618000
    51  C          0.16593000       0.66593000       0.56742000
    52  C          0.83407000       0.16593000       0.43258000
    53  H          0.24525100       0.64359700       0.55644700
    54  H          0.75474900       0.14359700       0.44355300
    55  C          0.07753000       0.76194000       0.50712000
    56  C          0.92247000       0.26194000       0.49288000
    57  H          0.09749600       0.80538000       0.45580900
    58  H          0.90250400       0.30538000       0.54419100
    59  C          0.96097000       0.79423000       0.52142000
    60  C          0.03903000       0.29423000       0.47858000
    61  H          0.90157400       0.86037800       0.48031700
    62  H          0.09842600       0.36037800       0.51968300
    63  C          0.93077000       0.73004000       0.59583000
    64  C          0.06923000       0.23004000       0.40417000
    65  H          0.85012000       0.75073600       0.60532500
    66  H          0.14988000       0.25073600       0.39467500
    67  C          0.01953000       0.63533000       0.65592000
    68  C          0.98047000       0.13533000       0.34408000
    69  H         -0.00137600       0.59162300       0.70682700
    70  H          0.00137600       0.09162300       0.29317300
    71  O          0.48952000       0.22092000       0.58335150
    72  O          0.51048000       0.72092000       0.41664850
    73  O          0.63612000       0.53413000       0.54114160
    74  O          0.36388000       0.03413000       0.45885840
    75  H          0.59140000       0.59250000       0.50130000
    76  H          0.40860000       0.09250000       0.49870000
    77  O          0.47002000       0.54762000       0.59880140
    78  O          0.52998000       0.04762000       0.40119860
    79  N          0.58593000       0.33163000       0.72761190
    80  N          0.41407000       0.83163000       0.27238810
    81  H          0.58040000       0.35340000       0.78130000
    82  H          0.41960000       0.85340000       0.21870000
    83  C          0.49983000       0.23863000       0.67112000
    84  C          0.50017000       0.73863000       0.32888000
    85  C          0.42023000       0.15993000       0.71812000
    86  C          0.57977000       0.65993000       0.28188000
    87  C          0.30023000       0.09864000       0.65882000
    88  C          0.69977000       0.59864000       0.34118000
    89  H          0.27008500       0.10706500       0.58881800
    90  H          0.72991500       0.60706500       0.41118200
    91  C          0.22473000       0.02564000       0.70122000
    92  C          0.77527000       0.52564000       0.29878000
    93  H          0.14334000       0.98428600       0.65993100
    94  H          0.85666000       0.48428600       0.34006900
    95  C          0.26653000       0.01203000       0.80352000
    96  C          0.73347000       0.51203000       0.19648000
    97  C          0.38643000       0.07413000       0.86252000
    98  C          0.61357000       0.57413000       0.13748000
    99  H          0.41553800       0.06711700       0.93248000
   100  H          0.58446200       0.56711700       0.06752000
   101  C          0.46323000       0.14523000       0.82092000
   102  C          0.53677000       0.64523000       0.17908000
   103  H          0.54572300       0.18443300       0.86227300
   104  H          0.45427700       0.68443300       0.13772700
   105  C          0.57793000       0.50383000       0.60422000
   106  C          0.42207000       0.00383000       0.39578000
   107  C          0.66673000       0.41423000       0.68792000
   108  C          0.33327000       0.91423000       0.31208000
   109  H          0.71996100       0.35247600       0.66167800
   110  H          0.28003900       0.85247600       0.33832200
   111  C          0.76333000       0.50623000       0.76902000
   112  C          0.23667000       0.00623000       0.23098000
   113  H          0.78474500       0.58688100       0.73657200
   114  H          0.21525500       0.08688100       0.26342800
   115  H          0.71578500       0.53959100       0.81146000
   116  H          0.28421500       0.03959100       0.18854000
   117  C          0.89483000       0.44104000       0.83582000
   118  C          0.10517000       0.94104000       0.16418000
   119  H          0.94259700       0.40689300       0.79301000
   120  H          0.05740300       0.90689300       0.20699000
   121  C          0.87474000       0.32114000       0.89593000
   122  C          0.12526000       0.82114000       0.10407000
   123  H          0.96194600       0.28763900       0.94055100
   124  H          0.03805400       0.78763900       0.05944900
   125  H          0.82711600       0.24763000       0.85086800
   126  H          0.17288400       0.74763000       0.14913200
   127  H          0.82215700       0.35098100       0.93476800
   128  H          0.17784300       0.85098100       0.06523200
   129  C          0.98173000       0.55034000       0.90512000
   130  C          0.01827000       0.05034000       0.09488000
   131  H          0.94163000       0.57733100       0.95294400
   132  H          0.05837000       0.07733100       0.04705600
   133  H         -0.01237500       0.63009900       0.86617900
   134  H          0.01237500       0.13009900       0.13382100
   135  H          0.07146200       0.51362200       0.94044400
   136  H          0.92853800       0.01362200       0.05955600
   137  C          0.18534000       0.93146000       0.85142000
   138  C          0.81466000       0.43146000       0.14858000
   139  H          0.13904700      -0.00499400       0.88008600
   140  H          0.86095300       0.49500600       0.11991400
   141  H          0.24525600       0.87304800       0.90377300
   142  H          0.75474400       0.37304800       0.09622700
   143  H          0.11943600       0.87480700       0.80133900
   144  H          0.88056400       0.37480700       0.19866100
