data_KOLSEK
_symmetry_space_group_name_H-M    'P1'
_symmetry_Int_Tables_number       1
loop_
_symmetry_equiv_pos_site_id
_symmetry_equiv_pos_as_xyz
1 x,y,z
_cell_length_a                   9.5434
_cell_length_b                   21.3879
_cell_length_c                   8.8024
_cell_angle_alpha                90.0
_cell_angle_beta                 94.86813
_cell_angle_gamma                90.0
loop_
_atom_site_label
_atom_site_type_symbol
_atom_site_fract_x
_atom_site_fract_y
_atom_site_fract_z
     1  O          0.23305870       0.02859600       0.05457150
     2  O          0.76694130       0.52859600       0.44542850
     3  O          0.76694130       0.97140400       0.94542850
     4  O          0.23305870       0.47140400       0.55457150
     5  C          0.25377840       0.06507800       0.16073190
     6  C          0.74622160       0.56507800       0.33926810
     7  C          0.74622160       0.93492200       0.83926810
     8  C          0.25377840       0.43492200       0.66073190
     9  C          0.14855850       0.07507700       0.27238180
    10  C          0.85144150       0.57507700       0.22761820
    11  C          0.85144150       0.92492300       0.72761820
    12  C          0.14855850       0.42492300       0.77238180
    13  H          0.17040000       0.10270000       0.35250000
    14  H          0.82960000       0.60270000       0.14750000
    15  H          0.82960000       0.89730000       0.64750000
    16  H          0.17040000       0.39730000       0.85250000
    17  C          0.02536850       0.04680700       0.26399180
    18  C          0.97463150       0.54680700       0.23600820
    19  C          0.97463150       0.95319300       0.73600820
    20  C          0.02536850       0.45319300       0.76399180
    21  H          0.00620000       0.01910000       0.18340000
    22  H         -0.00620000       0.51910000       0.31660000
    23  H         -0.00620000       0.98090000       0.81660000
    24  H          0.00620000       0.48090000       0.68340000
    25  C          0.38257840       0.10271800       0.18400190
    26  C          0.61742160       0.60271800       0.31599810
    27  C          0.61742160       0.89728200       0.81599810
    28  C          0.38257840       0.39728200       0.68400190
    29  H          0.38870000       0.13150000       0.26350000
    30  H          0.61130000       0.63150000       0.23650000
    31  H          0.61130000       0.86850000       0.73650000
    32  H          0.38870000       0.36850000       0.76350000
    33  C          0.48995850       0.09846700       0.09991170
    34  C          0.51004150       0.59846700       0.40008830
    35  C          0.51004150       0.90153300       0.90008830
    36  C          0.48995850       0.40153300       0.59991170
    37  H          0.48400000       0.06860000       0.02280000
    38  H          0.51600000       0.56860000       0.47720000
    39  H          0.51600000       0.93140000       0.97720000
    40  H          0.48400000       0.43140000       0.52280000
    41  N          0.70118870       0.06846700       0.56525160
    42  N          0.29881130       0.56846700       0.93474840
    43  N          0.29881130       0.93153300       0.43474840
    44  N          0.70118870       0.43153300       0.06525160
    45  C          0.82266820       0.09844900       0.58902000
    46  C          0.17733180       0.59844900       0.91098000
    47  C          0.17733180       0.90155100       0.41098000
    48  C          0.82266820       0.40155100       0.08902000
    49  H          0.83540000       0.12460000       0.67350000
    50  H          0.16460000       0.62460000       0.82650000
    51  H          0.16460000       0.87540000       0.32650000
    52  H          0.83540000       0.37540000       0.17350000
    53  C          0.93081840       0.09327800       0.49619190
    54  C          0.06918160       0.59327800       0.00380810
    55  C          0.06918160       0.90672200       0.50380810
    56  C          0.93081840       0.40672200      -0.00380810
    57  H          0.01380000       0.11550000       0.51840000
    58  H         -0.01380000       0.61550000       0.98160000
    59  H         -0.01380000       0.88450000       0.48160000
    60  H          0.01380000       0.38450000       0.01840000
    61  C          0.91546860       0.05473700       0.36938170
    62  C          0.08453140       0.55473700       0.13061830
    63  C          0.08453140       0.94526300       0.63061830
    64  C          0.91546860       0.44526300       0.86938170
    65  C          0.78942850       0.02322700       0.34478180
    66  C          0.21057150       0.52322700       0.15521820
    67  C          0.21057150       0.97677300       0.65521820
    68  C          0.78942850       0.47677300       0.84478180
    69  H          0.77370000      -0.00350000       0.26170000
    70  H          0.22630000       0.49650000       0.23830000
    71  H          0.22630000       0.00350000       0.73830000
    72  H          0.77370000       0.50350000       0.76170000
    73  C          0.68692840       0.03159800       0.44422000
    74  C          0.31307160       0.53159800       0.05578000
    75  C          0.31307160       0.96840200       0.55578000
    76  C          0.68692840       0.46840200       0.94422000
    77  H          0.60270000       0.01000000       0.42500000
    78  H          0.39730000       0.51000000       0.07500000
    79  H          0.39730000       0.99000000       0.57500000
    80  H          0.60270000       0.49000000       0.92500000
    81  N          0.86646860       0.20755700       0.15006180
    82  N          0.13353140       0.70755700       0.34993820
    83  N          0.13353140       0.79244300       0.84993820
    84  N          0.86646860       0.29244300       0.65006180
    85  C          0.75838000       0.21903900       0.23212000
    86  C          0.24162000       0.71903900       0.26788000
    87  C          0.24162000       0.78096100       0.76788000
    88  C          0.75838000       0.28096100       0.73212000
    89  H          0.76730000       0.25140000       0.30280000
    90  H          0.23270000       0.75140000       0.19720000
    91  H          0.23270000       0.74860000       0.69720000
    92  H          0.76730000       0.24860000       0.80280000
    93  C          0.63453830       0.18592800       0.21852000
    94  C          0.36546170       0.68592800       0.28148000
    95  C          0.36546170       0.81407200       0.78148000
    96  C          0.63453830       0.31407200       0.71852000
    97  H          0.56190000       0.19670000       0.27750000
    98  H          0.43810000       0.69670000       0.22250000
    99  H          0.43810000       0.80330000       0.72250000
   100  H          0.56190000       0.30330000       0.77750000
   101  C          0.61817850       0.13662700       0.11699170
   102  C          0.38182150       0.63662700       0.38300830
   103  C          0.38182150       0.86337300       0.88300830
   104  C          0.61817850       0.36337300       0.61699170
   105  C          0.73051840       0.12454800       0.03134180
   106  C          0.26948160       0.62454800       0.46865820
   107  C          0.26948160       0.87545200       0.96865820
   108  C          0.73051840       0.37545200       0.53134180
   109  H          0.72520000       0.09210000       0.96070000
   110  H          0.27480000       0.59210000       0.53930000
   111  H          0.27480000       0.90790000       0.03930000
   112  H          0.72520000       0.40790000       0.46070000
   113  C          0.85027830       0.16078900       0.05132000
   114  C          0.14972170       0.66078900       0.44868000
   115  C          0.14972170       0.83921100       0.94868000
   116  C          0.85027830       0.33921100       0.55132000
   117  H          0.92390000       0.15190000      -0.00800000
   118  H          0.07610000       0.65190000       0.50800000
   119  H          0.07610000       0.84810000       0.00800000
   120  H          0.92390000       0.34810000       0.49200000
   121  O          0.05679120       0.29812600       0.25435150
   122  O          0.94320880       0.79812600       0.24564850
   123  O          0.94320880       0.70187400       0.74564850
   124  O          0.05679120       0.20187400       0.75435150
   125  O          0.47616120       0.41236500       0.23583130
   126  O          0.52383880       0.91236500       0.26416870
   127  O          0.52383880       0.58763500       0.76416870
   128  O          0.47616120       0.08763500       0.73583130
   129  C          0.18271150       0.30395700       0.19387180
   130  C          0.81728850       0.80395700       0.30612820
   131  C          0.81728850       0.69604300       0.80612820
   132  C          0.18271150       0.19604300       0.69387180
   133  C          0.26774150       0.35360700       0.24346170
   134  C          0.73225850       0.85360700       0.25653830
   135  C          0.73225850       0.64639300       0.75653830
   136  C          0.26774150       0.14639300       0.74346170
   137  H          0.23820000       0.38120000       0.31590000
   138  H          0.76180000       0.88120000       0.18410000
   139  H          0.76180000       0.61880000       0.68410000
   140  H          0.23820000       0.11880000       0.81590000
   141  C          0.39704150       0.36228700       0.18532160
   142  C          0.60295850       0.86228700       0.31467840
   143  C          0.60295850       0.63771300       0.81467840
   144  C          0.39704150       0.13771300       0.68532160
   145  C          0.44157160       0.32063800       0.07961180
   146  C          0.55842840       0.82063800       0.42038820
   147  C          0.55842840       0.67936200       0.92038820
   148  C          0.44157160       0.17936200       0.57961180
   149  H          0.52900000       0.32550000       0.04180000
   150  H          0.47100000       0.82550000       0.45820000
   151  H          0.47100000       0.67450000       0.95820000
   152  H          0.52900000       0.17450000       0.54180000
   153  C          0.35522190       0.27177900       0.03072000
   154  C          0.64477810       0.77177900       0.46928000
   155  C          0.64477810       0.72822100       0.96928000
   156  C          0.35522190       0.22822100       0.53072000
   157  H          0.38500000       0.24400000       0.95880000
   158  H          0.61500000       0.74400000       0.54120000
   159  H          0.61500000       0.75600000       0.04120000
   160  H          0.38500000       0.25600000       0.45880000
   161  C          0.22566180       0.26307800       0.08582000
   162  C          0.77433820       0.76307800       0.41418000
   163  C          0.77433820       0.73692200       0.91418000
   164  C          0.22566180       0.23692200       0.58582000
   165  H          0.16810000       0.23010000       0.05070000
   166  H          0.83190000       0.73010000       0.44930000
   167  H          0.83190000       0.76990000       0.94930000
   168  H          0.16810000       0.26990000       0.55070000
   169  H          0.55520000       0.41689000       0.18220000
   170  H          0.44480000       0.91689000       0.31780000
   171  H          0.44480000       0.58311000       0.81780000
   172  H          0.55520000       0.08311000       0.68220000
   173  H          0.01030000       0.26391200       0.21130000
   174  H         -0.01030000       0.76391200       0.28870000
   175  H         -0.01030000       0.73608800       0.78870000
   176  H          0.01030000       0.23608800       0.71130000
