data_KORHAD
_symmetry_space_group_name_H-M    'P1'
_symmetry_Int_Tables_number       1
loop_
_symmetry_equiv_pos_site_id
_symmetry_equiv_pos_as_xyz
1 x,y,z
_cell_length_a                   10.4783
_cell_length_b                   10.1153
_cell_length_c                   13.0524
_cell_angle_alpha                90.0
_cell_angle_beta                 106.83012
_cell_angle_gamma                90.0
loop_
_atom_site_label
_atom_site_type_symbol
_atom_site_fract_x
_atom_site_fract_y
_atom_site_fract_z
     1  N          0.72884190       0.78680190       0.18533140
     2  N          0.27115810       0.28680190       0.31466860
     3  N          0.27115810       0.21319810       0.81466860
     4  N          0.72884190       0.71319810       0.68533140
     5  N          0.73352000       0.90805190       0.22576150
     6  N          0.26648000       0.40805190       0.27423850
     7  N          0.26648000       0.09194810       0.77423850
     8  N          0.73352000       0.59194810       0.72576150
     9  C          0.61703000       0.95973000       0.18242000
    10  C          0.38297000       0.45973000       0.31758000
    11  C          0.38297000       0.04027000       0.81758000
    12  C          0.61703000       0.54027000       0.68242000
    13  C          0.53873000       0.87163000       0.11472000
    14  C          0.46127000       0.37163000       0.38528000
    15  C          0.46127000       0.12837000       0.88528000
    16  C          0.53873000       0.62837000       0.61472000
    17  H          0.45080000       0.88470000       0.07390000
    18  H          0.54920000       0.38470000       0.42610000
    19  H          0.54920000       0.11530000       0.92610000
    20  H          0.45080000       0.61530000       0.57390000
    21  C          0.61093000       0.76273000       0.11752000
    22  C          0.38907000       0.26273000       0.38248000
    23  C          0.38907000       0.23727000       0.88248000
    24  C          0.61093000       0.73727000       0.61752000
    25  C          0.58853000       0.09513000       0.20863000
    26  C          0.41147000       0.59513000       0.29137000
    27  C          0.41147000       0.90487000       0.79137000
    28  C          0.58853000       0.40487000       0.70863000
    29  H          0.61690000       0.10660000       0.28490000
    30  H          0.38310000       0.60660000       0.21510000
    31  H          0.38310000       0.89340000       0.71510000
    32  H          0.61690000       0.39340000       0.78490000
    33  H          0.49440000       0.11130000       0.18200000
    34  H          0.50560000       0.61130000       0.31800000
    35  H          0.50560000       0.88870000       0.81800000
    36  H          0.49440000       0.38870000       0.68200000
    37  H          0.63540000       0.15610000       0.17630000
    38  H          0.36460000       0.65610000       0.32370000
    39  H          0.36460000       0.84390000       0.82370000
    40  H          0.63540000       0.34390000       0.67630000
    41  C          0.57973000       0.63703000       0.06093000
    42  C          0.42027000       0.13703000       0.43907000
    43  C          0.42027000       0.36297000       0.93907000
    44  C          0.57973000       0.86297000       0.56093000
    45  H          0.63360000       0.62710000       0.01310000
    46  H          0.36640000       0.12710000       0.48690000
    47  H          0.36640000       0.37290000       0.98690000
    48  H          0.63360000       0.87290000       0.51310000
    49  H          0.48720000       0.63550000       0.02060000
    50  H          0.51280000       0.13550000       0.47940000
    51  H          0.51280000       0.36450000       0.97940000
    52  H          0.48720000       0.86450000       0.52060000
    53  H          0.59790000       0.56580000       0.11170000
    54  H          0.40210000       0.06580000       0.38830000
    55  H          0.40210000       0.43420000       0.88830000
    56  H          0.59790000       0.93420000       0.61170000
    57  C          0.84192000       0.70192000       0.21796190
    58  C          0.15808000       0.20192000       0.28203810
    59  C          0.15808000       0.29808000       0.78203810
    60  C          0.84192000       0.79808000       0.71796190
    61  H          0.92060000       0.75540000       0.24840000
    62  H          0.07940000       0.25540000       0.25160000
    63  H          0.07940000       0.24460000       0.75160000
    64  H          0.92060000       0.74460000       0.74840000
    65  H          0.85350000       0.65800000       0.15520000
    66  H          0.14650000       0.15800000       0.34480000
    67  H          0.14650000       0.34200000       0.84480000
    68  H          0.85350000       0.84200000       0.65520000
    69  C          0.83282000       0.60052000       0.29699170
    70  C          0.16718000       0.10052000       0.20300830
    71  C          0.16718000       0.39948000       0.70300830
    72  C          0.83282000       0.89948000       0.79699170
    73  C          0.86273000       0.47362000       0.28262000
    74  C          0.13727000       0.97362000       0.21738000
    75  C          0.13727000       0.52638000       0.71738000
    76  C          0.86273000       0.02638000       0.78262000
    77  H          0.88260000       0.44930000       0.22010000
    78  H          0.11740000       0.94930000       0.27990000
    79  H          0.11740000       0.55070000       0.77990000
    80  H          0.88260000       0.05070000       0.72010000
    81  C          0.86443000       0.38173000       0.35712000
    82  C          0.13557000       0.88173000       0.14288000
    83  C          0.13557000       0.61827000       0.64288000
    84  C          0.86443000       0.11827000       0.85712000
    85  H          0.88680000       0.29480000       0.34680000
    86  H          0.11320000       0.79480000       0.15320000
    87  H          0.11320000       0.70520000       0.65320000
    88  H          0.88680000       0.20520000       0.84680000
    89  C          0.83352000       0.41573000       0.44682000
    90  C          0.16648000       0.91573000       0.05318000
    91  C          0.16648000       0.58427000       0.55318000
    92  C          0.83352000       0.08427000       0.94682000
    93  C          0.79963000       0.54183000       0.46072000
    94  C          0.20037000       0.04183000       0.03928000
    95  C          0.20037000       0.45817000       0.53928000
    96  C          0.79963000       0.95817000       0.96072000
    97  H          0.77700000       0.56550000       0.52210000
    98  H          0.22300000       0.06550000       0.97790000
    99  H          0.22300000       0.43450000       0.47790000
   100  H          0.77700000       0.93450000       0.02210000
   101  C          0.79863000       0.63282000       0.38592190
   102  C          0.20137000       0.13282000       0.11407810
   103  C          0.20137000       0.36718000       0.61407810
   104  C          0.79863000       0.86718000       0.88592190
   105  H          0.77410000       0.71920000       0.39540000
   106  H          0.22590000       0.21920000       0.10460000
   107  H          0.22590000       0.28080000       0.60460000
   108  H          0.77410000       0.78080000       0.89540000
   109  C          0.83583000       0.32073000       0.52593000
   110  C          0.16417000       0.82073000       0.97407000
   111  C          0.16417000       0.67927000       0.47407000
   112  C          0.83583000       0.17927000       0.02593000
   113  N          0.83633000       0.24603000       0.58893000
   114  N          0.16367000       0.74603000       0.91107000
   115  N          0.16367000       0.75397000       0.41107000
   116  N          0.83633000       0.25397000       0.08893000
   117  C          0.93773000       0.97712000       0.46094180
   118  C          0.06227000       0.47712000       0.03905820
   119  C          0.06227000       0.02288000       0.53905820
   120  C          0.93773000       0.52288000       0.96094180
   121  O          0.85772000       0.91482000       0.48657140
   122  O          0.14228000       0.41482000       0.01342860
   123  O          0.14228000       0.08518000       0.51342860
   124  O          0.85772000       0.58518000       0.98657140
   125  O          0.92922180       0.01208170       0.36588130
   126  O          0.07077820       0.51208170       0.13411870
   127  O          0.07077820      -0.01208170       0.63411870
   128  O          0.92922180       0.48791830       0.86588130
   129  H          0.85430000       0.97530000       0.31520000
   130  H          0.14570000       0.47530000       0.18480000
   131  H          0.14570000       0.02470000       0.68480000
   132  H          0.85430000       0.52470000       0.81520000
