data_KORVAR
_symmetry_space_group_name_H-M    'P1'
_symmetry_Int_Tables_number       1
loop_
_symmetry_equiv_pos_site_id
_symmetry_equiv_pos_as_xyz
1 x,y,z
_cell_length_a                   8.26018
_cell_length_b                   8.65237
_cell_length_c                   13.487114
_cell_angle_alpha                90.0
_cell_angle_beta                 95.2644
_cell_angle_gamma                90.0
loop_
_atom_site_label
_atom_site_type_symbol
_atom_site_fract_x
_atom_site_fract_y
_atom_site_fract_z
     1  C          0.24226000       0.32675000       0.12903000
     2  C          0.25774000       0.82675000       0.37097000
     3  C          0.75774000       0.67325000       0.87097000
     4  C          0.74226000       0.17325000       0.62903000
     5  H          0.25431500       0.26244300       0.18635700
     6  H          0.24568500       0.76244300       0.31364300
     7  H          0.74568500       0.73755700       0.81364300
     8  H          0.75431500       0.23755700       0.68635700
     9  C          0.21787000       0.26115000       0.03554000
    10  C          0.28213000       0.76115000       0.46446000
    11  C          0.78213000       0.73885000       0.96446000
    12  C          0.71787000       0.23885000       0.53554000
    13  H          0.21267900       0.15194900       0.02830200
    14  H          0.28732100       0.65194900       0.47169800
    15  H          0.78732100       0.84805100       0.97169800
    16  H          0.71267900       0.34805100       0.52830200
    17  C          0.20096000       0.35546000       0.95227000
    18  C          0.29904000       0.85546000       0.54773000
    19  C          0.79904000       0.64454000       0.04773000
    20  C          0.70096000       0.14454000       0.45227000
    21  H          0.18526600       0.31196100       0.88743200
    22  H          0.31473400       0.81196100       0.61256800
    23  H          0.81473400       0.68803900       0.11256800
    24  H          0.68526600       0.18803900       0.38743200
    25  C          0.20706000       0.51376000       0.96517000
    26  C          0.29294000       0.01376000       0.53483000
    27  C          0.79294000       0.48624000       0.03483000
    28  C          0.70706000      -0.01376000       0.46517000
    29  H          0.19393600       0.57945000       0.90861200
    30  H          0.30606400       0.07945000       0.59138800
    31  H          0.80606400       0.42055000       0.09138800
    32  H          0.69393600       0.92055000       0.40861200
    33  C          0.23225000       0.57865000       0.06003000
    34  C          0.26775000       0.07865000       0.43997000
    35  C          0.76775000       0.42135000       0.93997000
    36  C          0.73225000       0.92135000       0.56003000
    37  C          0.24008000       0.74735000       0.08074000
    38  C          0.25992000       0.24735000       0.41926000
    39  C          0.75992000       0.25265000       0.91926000
    40  C          0.74008000       0.75265000       0.58074000
    41  H          0.14660100       0.77778100       0.11605900
    42  H          0.35339900       0.27778100       0.38394100
    43  H          0.85339900       0.22221900       0.88394100
    44  H          0.64660100       0.72221900       0.61605900
    45  H          0.23786300       0.80416700       0.01776900
    46  H          0.26213700       0.30416700       0.48223100
    47  H          0.76213700       0.19583300       0.98223100
    48  H          0.73786300       0.69583300       0.51776900
    49  H          0.34086100       0.77104900       0.12195600
    50  H          0.15913900       0.27104900       0.37804400
    51  H          0.65913900       0.22895100       0.87804400
    52  H          0.84086100       0.72895100       0.62195600
    53  N          0.24894000       0.48134000       0.13923000
    54  N          0.25106000       0.98134000       0.36077000
    55  N          0.75106000       0.51866000       0.86077000
    56  N          0.74894000       0.01866000       0.63923000
    57  O          0.27384000       0.53973000       0.23152000
    58  O          0.22616000       0.03973000       0.26848000
    59  O          0.72616000       0.46027000       0.76848000
    60  O          0.77384000       0.96027000       0.73152000
    61  I          0.56998300       0.54018300       0.28267200
    62  I          0.93001700       0.04018300       0.21732800
    63  I          0.43001700       0.45981700       0.71732800
    64  I          0.06998300       0.95981700       0.78267200
    65  I          0.90140400       0.53823400       0.32863300
    66  I          0.59859600       0.03823400       0.17136700
    67  I          0.09859600       0.46176600       0.67136700
    68  I          0.40140400       0.96176600       0.82863300
