data_KORVEV
_symmetry_space_group_name_H-M    'P1'
_symmetry_Int_Tables_number       1
loop_
_symmetry_equiv_pos_site_id
_symmetry_equiv_pos_as_xyz
1 x,y,z
_cell_length_a                   10.227911
_cell_length_b                   12.218412
_cell_length_c                   12.506713
_cell_angle_alpha                112.4383
_cell_angle_beta                 101.8204
_cell_angle_gamma                98.0664
loop_
_atom_site_label
_atom_site_type_symbol
_atom_site_fract_x
_atom_site_fract_y
_atom_site_fract_z
     1  C          0.28863000       0.82043000       0.16863000
     2  C          0.71137000       0.17957000       0.83137000
     3  C          0.41723000       0.89993000       0.19733000
     4  C          0.58277000       0.10007000       0.80267000
     5  H          0.49668000       0.89462100       0.24812500
     6  H          0.50332000       0.10537900       0.75187500
     7  C          0.42604000      -0.01496000       0.15094000
     8  C          0.57396000       0.01496000       0.84906000
     9  H          0.51225100       0.03996100       0.17173300
    10  H          0.48774900       0.96003900       0.82826700
    11  C          0.31114000      -0.00696000       0.07374000
    12  C          0.68886000       0.00696000       0.92626000
    13  H          0.32052800       0.05144400       0.04118300
    14  H          0.67947200       0.94855600       0.95881700
    15  C          0.18594000       0.91703000       0.04503000
    16  C          0.81406000       0.08297000       0.95497000
    17  H          0.10862400       0.92321900      -0.00744400
    18  H          0.89137600       0.07678100       0.00744400
    19  C          0.16873000       0.82913000       0.09203000
    20  C          0.83127000       0.17087000       0.90797000
    21  C          0.04273000       0.74913000       0.06743000
    22  C          0.95727000       0.25087000       0.93257000
    23  C          0.03153000       0.66583000       0.11803000
    24  C          0.96847000       0.33417000       0.88197000
    25  C          0.90677000       0.58253000       0.09813000
    26  C          0.09323000       0.41747000       0.90187000
    27  H          0.82454900       0.58015300       0.04482900
    28  H          0.17545100       0.41984700       0.95517100
    29  C          0.90336000       0.50763000       0.15304000
    30  C          0.09664000       0.49237000       0.84696000
    31  H          0.81938000       0.45189600       0.13674400
    32  H          0.18062000       0.54810400       0.86325600
    33  C          0.02444000       0.51043000       0.23573000
    34  C          0.97556000       0.48957000       0.76427000
    35  H          0.01946900       0.45862200       0.27611500
    36  H         -0.01946900       0.54137800       0.72388500
    37  C          0.14574000       0.58623000       0.25683000
    38  C          0.85426000       0.41377000       0.74317000
    39  H          0.22597400       0.58772000       0.31184800
    40  H          0.77402600       0.41228000       0.68815200
    41  C          0.15273000       0.66293000       0.19703000
    42  C          0.84727000       0.33707000       0.80297000
    43  N          0.27742000       0.73602000       0.21512000
    44  N          0.72258000       0.26398000       0.78488000
    45  O          0.39022000       0.72742000       0.28248190
    46  O          0.60978000       0.27258000       0.71751810
    47  Cl         0.89806100       0.75540100       0.97403200
    48  Cl         0.10193900       0.24459900       0.02596800
    49  I          0.45195200       0.52520200       0.18098200
    50  I          0.54804800       0.47479800       0.81901800
    51  I          0.50994200       0.30459200       0.06632200
    52  I          0.49005800       0.69540800       0.93367800
    53  C          0.15543000       0.11523000       0.33113000
    54  C          0.84457000       0.88477000       0.66887000
    55  C          0.20374000       0.21453000       0.30733000
    56  C          0.79626000       0.78547000       0.69267000
    57  H          0.14423200       0.23645500       0.25392900
    58  H          0.85576800       0.76354500       0.74607100
    59  C          0.33824000       0.27943000       0.36234000
    60  C          0.66176000       0.72057000       0.63766000
    61  H          0.37175100       0.34603500       0.34580300
    62  H          0.62824900       0.65396500       0.65419700
    63  C          0.42754000       0.24914000       0.44264000
    64  C          0.57246000       0.75086000       0.55736000
    65  H          0.51952800       0.29651100       0.48155500
    66  H          0.48047200       0.70348900       0.51844500
    67  C          0.38203000       0.15223000       0.46433000
    68  C          0.61797000       0.84777000       0.53567000
    69  H          0.44330900       0.13218800       0.51820200
    70  H          0.55669100       0.86781200       0.48179800
    71  C          0.24483000       0.07973000       0.40853000
    72  C          0.75517000       0.92027000       0.59147000
    73  C          0.19153000       0.97907000       0.42743000
    74  C          0.80847000       0.02093000       0.57257000
    75  C          0.05243000       0.91797000       0.37823000
    76  C          0.94757000       0.08203000       0.62177000
    77  C         -0.00984000       0.81897000       0.39913000
    78  C          0.00984000       0.18103000       0.60087000
    79  H          0.04523500       0.79082500       0.44915800
    80  H          0.95476500       0.20917500       0.55084200
    81  C          0.85426000       0.76417000       0.34913000
    82  C          0.14574000       0.23583000       0.65087000
    83  H          0.81462800       0.69947000       0.36559500
    84  H          0.18537200       0.30053000       0.63440500
    85  C          0.77187000       0.80297000       0.27293000
    86  C          0.22813000       0.19703000       0.72707000
    87  H          0.67709700       0.76278900       0.23711600
    88  H          0.32290300       0.23721100       0.76288400
    89  C          0.82507000       0.89707000       0.24923000
    90  C          0.17493000       0.10293000       0.75077000
    91  H          0.76811900       0.92242700       0.19746700
    92  H          0.23188100       0.07757300       0.80253300
    93  C          0.96657000       0.95677000       0.30283000
    94  C          0.03343000       0.04323000       0.69717000
    95  N          0.02043000       0.05162000       0.27982000
    96  N          0.97957000       0.94838000       0.72018000
    97  O          0.93888000       0.08292000       0.20442000
    98  O          0.06112000       0.91708000       0.79558000
    99  Cl         0.29939900       0.92809100       0.51299800
   100  Cl         0.70060100       0.07190900       0.48700200
   101  I          0.84415800       0.25665200       0.31235200
   102  I          0.15584200       0.74334800       0.68764800
   103  I          0.76202700       0.46266200       0.43636200
   104  I          0.23797300       0.53733800       0.56363800
