data_KOSKAI
_symmetry_space_group_name_H-M    'P1'
_symmetry_Int_Tables_number       1
loop_
_symmetry_equiv_pos_site_id
_symmetry_equiv_pos_as_xyz
1 x,y,z
_cell_length_a                   7.489015
_cell_length_b                   8.302017
_cell_length_c                   21.3844
_cell_angle_alpha                93.033
_cell_angle_beta                 91.613
_cell_angle_gamma                111.173
loop_
_atom_site_label
_atom_site_type_symbol
_atom_site_fract_x
_atom_site_fract_y
_atom_site_fract_z
     1  S          0.84792110       0.35666900       0.09457400
     2  S          0.15207890       0.64333100       0.90542600
     3  Cl         0.14061140       0.07681120       0.06711400
     4  Cl         0.85938860       0.92318880       0.93288600
     5  O          0.79854000       0.23093000       0.14008130
     6  O          0.20146000       0.76907000       0.85991870
     7  O          0.81294000       0.29863000       0.02949120
     8  O          0.18706000       0.70137000       0.97050880
     9  N          0.38784000       0.05753000       0.23088120
    10  N          0.61216000       0.94247000       0.76911880
    11  N          0.66764000       0.88064000       0.37348120
    12  N          0.33236000       0.11936000       0.62651880
    13  C          0.48684000       0.95524000       0.21632130
    14  C          0.51316000       0.04476000       0.78367870
    15  C          0.56594000       0.74564000       0.14127130
    16  C          0.43406000       0.25436000       0.85872870
    17  C          0.36884000       0.91494000       0.10970140
    18  C          0.63116000       0.08506000       0.89029860
    19  H          0.36252100       0.86885600       0.06873100
    20  H          0.63747900       0.13114400       0.93126900
    21  C          0.47464000       0.87424000       0.15637130
    22  C          0.52536000       0.12576000       0.84362870
    23  C          0.61844000       0.94104000       0.26716140
    24  C          0.38156000       0.05896000       0.73283860
    25  C          0.27334000       0.02404000       0.12479150
    26  C          0.72666000       0.97596000       0.87520850
    27  C          0.63074000       0.49124000       0.16525140
    28  C          0.36926000       0.50876000       0.83474860
    29  H          0.61975100       0.40261000       0.19148000
    30  H          0.38024900       0.59739000       0.80852000
    31  C          0.73124000       0.50454000       0.11089140
    32  C          0.26876000       0.49546000       0.88910860
    33  C          0.54774000       0.61104000       0.17977140
    34  C          0.45226000       0.38896000       0.82022860
    35  H          0.47862600       0.60189600       0.21573100
    36  H          0.52137400       0.39810400       0.78426900
    37  C          0.28214000       0.08984000       0.18611150
    38  C          0.71786000       0.91016000       0.81388850
    39  H          0.21161600       0.15885700       0.19618300
    40  H          0.78838400       0.84114300       0.80381700
    41  C          0.80964000       0.96974000       0.25774150
    42  C          0.19036000       0.03026000       0.74225850
    43  H          0.85886800      -0.00058600       0.21875500
    44  H          0.14113200       0.00058600       0.78124500
    45  C          0.55805000       0.90024000       0.32673150
    46  C          0.44195000       0.09976000       0.67326850
    47  H          0.43173200       0.88534200       0.33467700
    48  H          0.56826800       0.11465800       0.66532300
    49  C          0.74915000       0.63534000       0.07218160
    50  C          0.25085000       0.36466000       0.92781840
    51  H          0.81654100       0.64290200       0.03591100
    52  H          0.18345900       0.35709800       0.96408900
    53  C          0.66685000       0.75574000       0.08718150
    54  C          0.33315000       0.24426000       0.91281850
    55  H          0.67896700       0.84430000       0.06085500
    56  H          0.32103300       0.15570000       0.93914500
    57  C          0.09175000       0.48514000       0.10655170
    58  C          0.90825000       0.51486000       0.89344830
    59  H          0.11533000       0.53839100       0.14841800
    60  H          0.88467000       0.46160900       0.85158200
    61  H          0.12587000       0.57314100       0.07701700
    62  H          0.87413000       0.42685900       0.92298300
    63  H          0.16726500       0.41399000       0.10076100
    64  H          0.83273500       0.58601000       0.89923900
    65  C          0.92645000       0.95445000       0.30591150
    66  C          0.07355000       0.04555000       0.69408850
    67  H          0.05505700       0.97534200       0.29977000
    68  H          0.94494300       0.02465800       0.70023000
    69  C          0.85275000       0.90795000       0.36326150
    70  C          0.14725000       0.09205000       0.63673850
    71  C         -0.02524000       0.88496000       0.41709180
    72  C          0.02524000       0.11504000       0.58290820
    73  H          0.05133500      -0.00374000       0.43668800
    74  H          0.94866500       0.00374000       0.56331200
    75  H          0.05692500       0.82772000       0.40153300
    76  H          0.94307500       0.17228000       0.59846700
    77  H          0.89331000       0.81625700       0.44721500
    78  H          0.10669000       0.18374300       0.55278500
    79  O          0.43104000       0.77195000       0.46640130
    80  O          0.56896000       0.22805000       0.53359870
    81  H          0.52003000       0.80210400       0.44287500
    82  H          0.47997000       0.19789600       0.55712500
    83  O          0.64234000       0.71575000       0.52756150
    84  O          0.35766000       0.28425000       0.47243850
    85  N          0.91004000       0.51325000       0.69685170
    86  N          0.08996000       0.48675000       0.30314830
    87  C          0.05875000       0.56955000       0.65012170
    88  C          0.94125000       0.43045000       0.34987830
    89  C          0.33135000       0.66755000       0.56405160
    90  C          0.66865000       0.33245000       0.43594840
    91  O          0.92814000       0.41826000       0.73611180
    92  O          0.07186000       0.58174000       0.26388820
    93  O          0.77644000       0.56086000       0.69422000
    94  O          0.22356000       0.43914000       0.30578000
    95  C          0.01616000       0.63346000       0.59694190
    96  C         -0.01616000       0.36654000       0.40305810
    97  H          0.89760700       0.64352000       0.58993200
    98  H          0.10239300       0.35648000       0.41006800
    99  C          0.48646000       0.72116000       0.51759180
   100  C          0.51354000       0.27884000       0.48240820
   101  C          0.15626000       0.68276000       0.55364190
   102  C          0.84374000       0.31724000       0.44635810
   103  H          0.13159600       0.72708500       0.51671200
   104  H          0.86840400       0.27291500       0.48328800
   105  C          0.36776000       0.60096000       0.61798180
   106  C          0.63224000       0.39904000       0.38201820
   107  H          0.48611900       0.59082600       0.62534100
   108  H          0.51388100       0.40917400       0.37465900
   109  C          0.22966000       0.54866000       0.66136190
   110  C          0.77034000       0.45134000       0.33863810
   111  H          0.25184100       0.50015300       0.69760100
   112  H          0.74815900       0.49984700       0.30239900
