data_KOVFEK
_symmetry_space_group_name_H-M    'P1'
_symmetry_Int_Tables_number       1
loop_
_symmetry_equiv_pos_site_id
_symmetry_equiv_pos_as_xyz
1 x,y,z
_cell_length_a                   21.90418
_cell_length_b                   4.0444
_cell_length_c                   25.872
_cell_angle_alpha                90.0
_cell_angle_beta                 110.902
_cell_angle_gamma                90.0
loop_
_atom_site_label
_atom_site_type_symbol
_atom_site_fract_x
_atom_site_fract_y
_atom_site_fract_z
     1  I          0.33766200       0.75834120       0.46539200
     2  I          0.66233800       0.25834120       0.03460800
     3  I          0.66233800       0.24165880       0.53460800
     4  I          0.33766200       0.74165880       0.96539200
     5  F          0.46232000       0.69971300       0.57592000
     6  F          0.53768000       0.19971300       0.92408000
     7  F          0.53768000       0.30028700       0.42408000
     8  F          0.46232000       0.80028700       0.07592000
     9  F          0.58482000       0.89051200       0.60264190
    10  F          0.41518000       0.39051200       0.89735810
    11  F          0.41518000       0.10948800       0.39735810
    12  F          0.58482000       0.60948800       0.10264190
    13  C          0.43473000       0.90091700       0.48623000
    14  C          0.56527000       0.40091700       0.01377000
    15  C          0.56527000       0.09908300       0.51377000
    16  C          0.43473000       0.59908300       0.98623000
    17  C          0.48004000       0.85091700       0.53723000
    18  C          0.51996000       0.35091700       0.96277000
    19  C          0.51996000       0.14908300       0.46277000
    20  C          0.48004000       0.64908300       0.03723000
    21  C          0.54364000       0.94541800       0.55103000
    22  C          0.45636000       0.44541800       0.94897000
    23  C          0.45636000       0.05458200       0.44897000
    24  C          0.54364000       0.55458200       0.05103000
    25  O          0.78463000       0.61251500       0.90083000
    26  O          0.21537000       0.11251500       0.59917000
    27  O          0.21537000       0.38748500       0.09917000
    28  O          0.78463000       0.88748500       0.40083000
    29  O          0.57983000       0.02711600       0.81663000
    30  O          0.42017000       0.52711600       0.68337000
    31  O          0.42017000      -0.02711600       0.18337000
    32  O          0.57983000       0.47288400       0.31663000
    33  N          0.68313000       0.83031400       0.85913000
    34  N          0.31687000       0.33031400       0.64087000
    35  N          0.31687000       0.16968600       0.14087000
    36  N          0.68313000       0.66968600       0.35913000
    37  N          0.76643000       0.90321600       0.82263000
    38  N          0.23357000       0.40321600       0.67737000
    39  N          0.23357000       0.09678400       0.17737000
    40  N          0.76643000       0.59678400       0.32263000
    41  N          0.62743000       0.28871600       0.73003000
    42  N          0.37257000       0.78871600       0.76997000
    43  N          0.37257000       0.71128400       0.26997000
    44  N          0.62743000       0.21128400       0.23003000
    45  N          0.73434000       0.20241700       0.73783000
    46  N          0.26566000       0.70241700       0.76217000
    47  N          0.26566000       0.79758300       0.26217000
    48  N          0.73434000       0.29758300       0.23783000
    49  C          0.74724000       0.77420000       0.86293000
    50  C          0.25276000       0.27420000       0.63707000
    51  C          0.25276000       0.22580000       0.13707000
    52  C          0.74724000       0.72580000       0.36293000
    53  C          0.72174000       0.07291800       0.77923000
    54  C          0.27826000       0.57291800       0.72077000
    55  C          0.27826000       0.92708200       0.22077000
    56  C          0.72174000       0.42708200       0.27923000
    57  C          0.65964000       0.11391900       0.77703000
    58  C          0.34036000       0.61391900       0.72297000
    59  C          0.34036000       0.88608100       0.22297000
    60  C          0.65964000       0.38608100       0.27703000
    61  C          0.63574000      -0.00588100       0.81643000
    62  C          0.36426000       0.49411900       0.68357000
    63  C          0.36426000       0.00588100       0.18357000
    64  C          0.63574000       0.50588100       0.31643000
    65  C          0.67475000       0.33620000       0.70824000
    66  C          0.32525000       0.83620000       0.79176000
    67  C          0.32525000       0.66380000       0.29176000
    68  C          0.67475000       0.16380000       0.20824000
    69  H          0.66703600       0.45110700       0.67533900
    70  H          0.33296400       0.95110700       0.82466100
    71  H          0.33296400       0.54889300       0.32466100
    72  H          0.66703600       0.04889300       0.17533900
    73  C          0.83274000       0.85220000       0.82504000
    74  C          0.16726000       0.35220000       0.67496000
    75  C          0.16726000       0.14780000       0.17496000
    76  C          0.83274000       0.64780000       0.32504000
    77  H          0.86250900       0.90466700       0.86147100
    78  H          0.13749100       0.40466700       0.63852900
    79  H          0.13749100       0.09533300       0.13852900
    80  H          0.86250900       0.59533300       0.36147100
    81  H          0.84121000      -0.00736700       0.79846700
    82  H          0.15879000       0.49263300       0.70153300
    83  H          0.15879000       0.00736700       0.20153300
    84  H          0.84121000       0.50736700       0.29846700
    85  H          0.83828000       0.62521800       0.81677400
    86  H          0.16172000       0.12521800       0.68322600
    87  H          0.16172000       0.37478200       0.18322600
    88  H          0.83828000       0.87478200       0.31677400
    89  C          0.66405000       0.69120000       0.90374000
    90  C          0.33595000       0.19120000       0.59626000
    91  C          0.33595000       0.30880000       0.09626000
    92  C          0.66405000       0.80880000       0.40374000
    93  H          0.68932200       0.79298800       0.93823500
    94  H          0.31067800       0.29298800       0.56176500
    95  H          0.31067800       0.20701200       0.06176500
    96  H          0.68932200       0.70701200       0.43823500
    97  H          0.67186600       0.45689700       0.90609900
    98  H          0.32813400       0.95689700       0.59390100
    99  H          0.32813400       0.54310300       0.09390100
   100  H          0.67186600       0.04310300       0.40609900
   101  H          0.61843900       0.73212000       0.89589800
   102  H          0.38156100       0.23212000       0.60410200
   103  H          0.38156100       0.26788000       0.10410200
   104  H          0.61843900       0.76788000       0.39589800
   105  C          0.56135000       0.38620000       0.70634000
   106  C          0.43865000       0.88620000       0.79366000
   107  C          0.43865000       0.61380000       0.29366000
   108  C          0.56135000       0.11380000       0.20634000
   109  H          0.53823500       0.23464000       0.67730700
   110  H          0.46176500       0.73464000       0.82269300
   111  H          0.46176500       0.76536000       0.32269300
   112  H          0.53823500       0.26536000       0.17730700
   113  H          0.55882800       0.60478000       0.69121800
   114  H          0.44117200       0.10478000       0.80878200
   115  H          0.44117200       0.39522000       0.30878200
   116  H          0.55882800       0.89522000       0.19121800
   117  H          0.54187200       0.38504200       0.73419200
   118  H          0.45812800       0.88504200       0.76580800
   119  H          0.45812800       0.61495800       0.26580800
   120  H          0.54187200       0.11495800       0.23419200
   121  O          0.08973000      -0.02251300       0.28882000
   122  O          0.91027000       0.47748700       0.21118000
   123  O          0.91027000       0.02251300       0.71118000
   124  O          0.08973000       0.52251300       0.78882000
   125  O         -0.00453000       0.21431700       0.41493000
   126  O          0.00453000       0.71431700       0.08507000
   127  O          0.00453000       0.78568300       0.58507000
   128  O         -0.00453000       0.28568300       0.91493000
   129  N          0.04303000       0.10191500       0.35183000
   130  N          0.95697000       0.60191500       0.14817000
   131  N          0.95697000       0.89808500       0.64817000
   132  N          0.04303000       0.39808500       0.85183000
   133  N          0.14963000       0.27701500       0.36263000
   134  N          0.85037000       0.77701500       0.13737000
   135  N          0.85037000       0.72298500       0.63737000
   136  N          0.14963000       0.22298500       0.86263000
   137  N          0.12403000       0.57101600       0.47883000
   138  N          0.87597000       0.07101600       0.02117000
   139  N          0.87597000       0.42898400       0.52117000
   140  N          0.12403000       0.92898400       0.97883000
   141  N          0.20493000       0.58291500       0.44613000
   142  N          0.79507000       0.08291500       0.05387000
   143  N          0.79507000       0.41708500       0.55387000
   144  N          0.20493000       0.91708500       0.94613000
   145  C          0.09404000       0.10831800       0.33203000
   146  C          0.90596000       0.60831800       0.16797000
   147  C          0.90596000       0.89168200       0.66797000
   148  C          0.09404000       0.39168200       0.83203000
   149  C          0.15333000       0.41381700       0.41143000
   150  C          0.84667000       0.91381700       0.08857000
   151  C          0.84667000       0.58618300       0.58857000
   152  C          0.15333000       0.08618300       0.91143000
   153  C          0.10314000       0.39951800       0.42983000
   154  C          0.89686000       0.89951800       0.07017000
   155  C          0.89686000       0.60048200       0.57017000
   156  C          0.10314000       0.10048200       0.92983000
   157  C          0.04444000       0.24220000       0.40194000
   158  C          0.95556000       0.74220000       0.09806000
   159  C          0.95556000       0.75780000       0.59806000
   160  C          0.04444000       0.25780000       0.90194000
   161  C          0.18284000       0.67491700       0.48583000
   162  C          0.81716000       0.17491700       0.01417000
   163  C          0.81716000       0.32508300       0.51417000
   164  C          0.18284000       0.82508300       0.98583000
   165  H          0.20730500       0.80248300       0.51596200
   166  H          0.79269500       0.30248300       0.98403800
   167  H          0.79269500       0.19751700       0.48403800
   168  H          0.20730500       0.69751700       0.01596200
   169  C          0.98426000       0.92980000       0.31734000
   170  C          0.01574000       0.42980000       0.18266000
   171  C          0.01574000       0.07020000       0.68266000
   172  C          0.98426000       0.57020000       0.81734000
   173  H          0.95730600       0.07842900       0.28961300
   174  H          0.04269400       0.57842900       0.21038700
   175  H          0.04269400       0.92157100       0.71038700
   176  H          0.95730600       0.42157100       0.78961300
   177  H          0.96063400       0.85304500       0.33986000
   178  H          0.03936600       0.35304500       0.16014000
   179  H          0.03936600       0.14695500       0.66014000
   180  H          0.96063400       0.64695500       0.83986000
   181  H         -0.00373100       0.74482000       0.29970900
   182  H          0.00373100       0.24482000       0.20029100
   183  H          0.00373100       0.25518000       0.70029100
   184  H         -0.00373100       0.75518000       0.79970900
   185  C          0.20204000       0.31341900       0.34074000
   186  C          0.79796000       0.81341900       0.15926000
   187  C          0.79796000       0.68658100       0.65926000
   188  C          0.20204000       0.18658100       0.84074000
   189  H          0.24294500       0.25690800       0.36883600
   190  H          0.75705500       0.75690800       0.13116400
   191  H          0.75705500       0.74309200       0.63116400
   192  H          0.24294500       0.24309200       0.86883600
   193  H          0.20347700       0.53816300       0.32925900
   194  H          0.79652300       0.03816300       0.17074100
   195  H          0.79652300       0.46183700       0.67074100
   196  H          0.20347700       0.96183700       0.82925900
   197  H          0.19401400       0.16898100       0.30949400
   198  H          0.80598600       0.66898100       0.19050600
   199  H          0.80598600       0.83101900       0.69050600
   200  H          0.19401400       0.33101900       0.80949400
   201  C          0.08774000       0.63420000       0.51554000
   202  C          0.91226000       0.13420000       0.98446000
   203  C          0.91226000       0.36580000       0.48446000
   204  C          0.08774000       0.86580000       0.01554000
   205  H          0.11394300       0.76471700       0.54636100
   206  H          0.88605700       0.26471700       0.95363900
   207  H          0.88605700       0.23528300       0.45363900
   208  H          0.11394300       0.73528300       0.04636100
   209  H          0.07724600       0.42709500       0.52862600
   210  H          0.92275400       0.92709500       0.97137400
   211  H          0.92275400       0.57290500       0.47137400
   212  H          0.07724600       0.07290500       0.02862600
   213  H          0.04811400       0.75029700       0.49556000
   214  H          0.95188600       0.25029700       0.00444000
   215  H          0.95188600       0.24970300       0.50444000
   216  H          0.04811400       0.74970300      -0.00444000
