data_KUQXAY
_symmetry_space_group_name_H-M    'P1'
_symmetry_Int_Tables_number       1
loop_
_symmetry_equiv_pos_site_id
_symmetry_equiv_pos_as_xyz
1 x,y,z
_cell_length_a                   9.2841713
_cell_length_b                   7.2859815
_cell_length_c                   13.26662
_cell_angle_alpha                90.0
_cell_angle_beta                 91.272013
_cell_angle_gamma                90.0
loop_
_atom_site_label
_atom_site_type_symbol
_atom_site_fract_x
_atom_site_fract_y
_atom_site_fract_z
     1  Br         0.80110110       0.49274120       0.38816800
     2  Br         0.30110110       0.50725880       0.88816800
     3  Br         0.80105900       0.56982140       0.64082700
     4  Br         0.30105900       0.43017860       0.14082700
     5  O          0.50548000       0.58081000       0.30295000
     6  O          0.00548000       0.41919000       0.80295000
     7  O          0.50958000       0.71681300       0.69665000
     8  O          0.00958000       0.28318700       0.19665000
     9  C          0.64181000       0.58171100       0.45516000
    10  C          0.14181000       0.41828900       0.95516000
    11  C          0.51231100       0.60871300       0.39217000
    12  C          0.01231100       0.39128700       0.89217000
    13  N          0.14791000       0.72651600       0.33607000
    14  N          0.64791000       0.27348400       0.83607000
    15  C          0.25189000       0.70311400       0.38236000
    16  C          0.75189000       0.29688600       0.88236000
    17  C          0.64209000       0.61261300       0.55576000
    18  C          0.14209000       0.38738700       0.05576000
    19  C          0.37959000       0.67781300       0.44276000
    20  C          0.87959000       0.32218700       0.94276000
    21  C          0.51171000       0.68251300       0.60696000
    22  C          0.01171000       0.31748700       0.10696000
    23  C          0.25601000       0.77801600       0.59327000
    24  C          0.75601000       0.22198400       0.09327000
    25  C          0.38099000       0.71231200       0.54276000
    26  C          0.88099000       0.28768800       0.04276000
    27  N          0.15471200       0.83191800       0.63207000
    28  N          0.65471200       0.16808200       0.13207000
    29  S          0.44743000       0.10063000       0.33369150
    30  S          0.94743000       0.89937000       0.83369150
    31  C          0.21301000       0.24361500       0.43707000
    32  C          0.71301000       0.75638500       0.93707000
    33  H          0.15660700       0.24072800       0.37823400
    34  H          0.65660700       0.75927200       0.87823400
    35  C          0.69941200       0.09461500       0.57688000
    36  C          0.19941200       0.90538500       0.07688000
    37  H          0.68883600       0.12433000       0.64435900
    38  H          0.18883600       0.87567000       0.14435900
    39  C          0.84641500      -0.01761600       0.44111200
    40  C          0.34641500       0.01761600       0.94111200
    41  H          0.93448400       0.93717800       0.42016600
    42  H          0.43448400       0.06282200       0.92016600
    43  C          0.58511000       0.11371200       0.50857000
    44  C          0.08511000       0.88628800       0.00857000
    45  C          0.35491000       0.18221300       0.43827000
    46  C          0.85491000       0.81778700       0.93827000
    47  C          0.38211100       0.24971300       0.61596000
    48  C          0.88211100       0.75028700       0.11596000
    49  H          0.43733300       0.25311200       0.67518200
    50  H          0.93733300       0.74688800       0.17518200
    51  C          0.73421400       0.00161200       0.37261000
    52  C          0.23421400      -0.00161200       0.87261000
    53  H          0.74515400       0.97157300       0.30501900
    54  H          0.24515400       0.02842700       0.80501900
    55  C          0.60421200       0.06691200       0.40727000
    56  C          0.10421200       0.93308800       0.90727000
    57  C          0.82851300       0.03081500       0.54251000
    58  C          0.32851300       0.96918500       0.04251000
    59  H          0.90617700       0.01935100       0.58755500
    60  H          0.40617700       0.98064900       0.08755500
    61  C          0.44129000       0.18111200       0.52556000
    62  C          0.94129000       0.81888800       0.02556000
    63  C          0.15871000       0.30891400       0.52638000
    64  C          0.65871000       0.69108600       0.02638000
    65  H          0.06454600       0.35245700       0.52738900
    66  H          0.56454600       0.64754300       0.02738900
    67  C          0.24211200       0.31081500       0.61447000
    68  C          0.74211200       0.68918500       0.11447000
    69  H          0.20245400       0.35425700       0.67356700
    70  H          0.70245400       0.64574300       0.17356700
