data_KUQXIG
_symmetry_space_group_name_H-M    'P1'
_symmetry_Int_Tables_number       1
loop_
_symmetry_equiv_pos_site_id
_symmetry_equiv_pos_as_xyz
1 x,y,z
_cell_length_a                   9.23132
_cell_length_b                   7.2025416
_cell_length_c                   13.19293
_cell_angle_alpha                90.0
_cell_angle_beta                 92.272419
_cell_angle_gamma                90.0
loop_
_atom_site_label
_atom_site_type_symbol
_atom_site_fract_x
_atom_site_fract_y
_atom_site_fract_z
     1  Cl         0.79640700       0.49766900       0.39736600
     2  Cl         0.29640700       0.50233100       0.89736600
     3  Cl         0.79953700       0.57452100       0.63582500
     4  Cl         0.29953700       0.42547900       0.13582500
     5  O          0.51362000       0.57843000       0.30216130
     6  O          0.01362000       0.42157000       0.80216130
     7  O          0.52162000       0.72073000       0.69745150
     8  O          0.02162000       0.27927000       0.19745150
     9  C          0.38512000       0.67413000       0.44262170
    10  C          0.88512000       0.32587000       0.94262170
    11  C          0.51723000       0.60653000       0.39188180
    12  C          0.01723000       0.39347000       0.89188180
    13  N          0.15003000       0.71754000       0.33234190
    14  N          0.65003000       0.28246000       0.83234190
    15  C          0.38713000       0.71023000       0.54285170
    16  C          0.88713000       0.28977000       0.04285170
    17  C          0.64923000       0.57743000       0.45778190
    18  C          0.14923000       0.42257000       0.95778190
    19  C          0.65133000       0.61173000       0.55821190
    20  C          0.15133000       0.38827000       0.05821190
    21  C          0.25593000       0.69774000       0.38022180
    22  C          0.75593000       0.30226000       0.88022180
    23  C          0.52153000       0.68413000       0.60806180
    24  C          0.02153000       0.31587000       0.10806180
    25  C          0.26133000       0.77564000       0.59235190
    26  C          0.76133000       0.22436000       0.09235190
    27  N          0.16063000       0.82924000       0.63062000
    28  N          0.66063000       0.17076000       0.13062000
    29  S          0.44422600       0.10330800       0.33279400
    30  S          0.94422600       0.89669200       0.83279400
    31  C          0.38833000       0.24903000       0.61752170
    32  C          0.88833000       0.75097000       0.11752170
    33  H          0.44583500       0.25013600       0.67698900
    34  H          0.94583500       0.74986400       0.17698900
    35  C          0.44442000       0.18373000       0.52679170
    36  C          0.94442000       0.81627000       0.02679170
    37  C          0.58863000       0.11553000       0.50834180
    38  C          0.08863000       0.88447000       0.00834180
    39  C          0.60413000       0.06783000       0.40629190
    40  C          0.10413000       0.93217000       0.90629190
    41  C          0.73573000       0.00213000       0.37122000
    42  C          0.23573000      -0.00213000       0.87122000
    43  H          0.74533300       0.97117500       0.30333200
    44  H          0.24533300       0.02882500       0.80333200
    45  C          0.35483000       0.18393000       0.43850170
    46  C          0.85483000       0.81607000       0.93850170
    47  C          0.83653000       0.02934000       0.54163000
    48  C          0.33653000       0.97066000       0.04163000
    49  H          0.91581700       0.01542500       0.58663400
    50  H          0.41581700      -0.01542500       0.08663400
    51  C          0.70743000       0.09364000       0.57632000
    52  C          0.20743000       0.90636000       0.07632000
    53  H          0.69909700       0.12240900       0.64454300
    54  H          0.19909700       0.87759100       0.14454300
    55  C          0.21203000       0.24644000       0.43912000
    56  C          0.71203000       0.75356000       0.93912000
    57  H          0.15341900       0.24575700       0.38011400
    58  H          0.65341900       0.75424300       0.88011400
    59  C          0.85003000      -0.01514000       0.44023000
    60  C          0.35003000       0.01514000       0.94023000
    61  H          0.93864300       0.94243900       0.41846900
    62  H          0.43864300       0.05756100       0.91846900
    63  C          0.24753000       0.31134000       0.61772000
    64  C          0.74753000       0.68866000       0.11772000
    65  H          0.21022700       0.35549200       0.67757400
    66  H          0.71022700       0.64450800       0.17757400
    67  C          0.15983000       0.30914000       0.52912000
    68  C          0.65983000       0.69086000       0.02912000
    69  H          0.06455300       0.35063500       0.53088300
    70  H          0.56455300       0.64936500       0.03088300
