data_KUQYED
_symmetry_space_group_name_H-M    'P1'
_symmetry_Int_Tables_number       1
loop_
_symmetry_equiv_pos_site_id
_symmetry_equiv_pos_as_xyz
1 x,y,z
_cell_length_a                   6.6178315
_cell_length_b                   17.51254
_cell_length_c                   7.6809015
_cell_angle_alpha                90.0
_cell_angle_beta                 100.8882
_cell_angle_gamma                90.0
loop_
_atom_site_label
_atom_site_type_symbol
_atom_site_fract_x
_atom_site_fract_y
_atom_site_fract_z
     1  S          0.27694100       0.75000000       0.48956800
     2  S          0.72305900       0.25000000       0.51043200
     3  C          0.21273000       0.70870100       0.15413000
     4  C          0.78727000       0.20870100       0.84587000
     5  C          0.78727000       0.29129900       0.84587000
     6  C          0.21273000       0.79129900       0.15413000
     7  C          0.24573000       0.67841100       0.32722000
     8  C          0.75427000       0.17841100       0.67278000
     9  C          0.75427000       0.32158900       0.67278000
    10  C          0.24573000       0.82158900       0.32722000
    11  C          0.25243000       0.59952110       0.36083000
    12  C          0.74757000       0.09952110       0.63917000
    13  C          0.74757000       0.40047890       0.63917000
    14  C          0.25243000       0.90047890       0.36083000
    15  C          0.18573000       0.65858120       0.01003000
    16  C          0.81427000       0.15858120      -0.01003000
    17  C          0.81427000       0.34141880      -0.01003000
    18  C          0.18573000       0.84141880       0.01003000
    19  H          0.16251500       0.67736600       0.89465600
    20  H          0.83748500       0.17736600       0.10534400
    21  H          0.83748500       0.32263400       0.10534400
    22  H          0.16251500       0.82263400       0.89465600
    23  C          0.22583000       0.55244110       0.21303000
    24  C          0.77417000       0.05244110       0.78697000
    25  C          0.77417000       0.44755890       0.78697000
    26  C          0.22583000       0.94755890       0.21303000
    27  H          0.22951100       0.49981900       0.22948400
    28  H          0.77048900      -0.00018100       0.77051600
    29  H          0.77048900       0.50018100       0.77051600
    30  H          0.22951100       0.00018100       0.22948400
    31  C          0.19383000       0.58102120       0.04073000
    32  C          0.80617000       0.08102120       0.95927000
    33  C          0.80617000       0.41897880       0.95927000
    34  C          0.19383000       0.91897880       0.04073000
    35  H          0.17773200       0.54739100       0.94535400
    36  H          0.82226800       0.04739100       0.05464600
    37  H          0.82226800       0.45260900       0.05464600
    38  H          0.17773200       0.95260900       0.94535400
    39  C          0.28323000       0.56879130       0.54633000
    40  C          0.71677000       0.06879130       0.45367000
    41  C          0.71677000       0.43120870       0.45367000
    42  C          0.28323000       0.93120870       0.54633000
    43  H          0.41257800       0.58644100       0.61227500
    44  H          0.58742200       0.08644100       0.38772500
    45  H          0.58742200       0.41355900       0.38772500
    46  H          0.41257800       0.91355900       0.61227500
    47  H          0.28286000       0.51399600       0.54290900
    48  H          0.71714000       0.01399600       0.45709100
    49  H          0.71714000       0.48600400       0.45709100
    50  H          0.28286000       0.98600400       0.54290900
    51  H          0.17380600       0.58628600       0.60247100
    52  H          0.82619400       0.08628600       0.39752900
    53  H          0.82619400       0.41371400       0.39752900
    54  H          0.17380600       0.91371400       0.60247100
    55  O          0.71193000       0.59800900       0.13752000
    56  O          0.28807000       0.09800900       0.86248000
    57  O          0.28807000       0.40199100       0.86248000
    58  O          0.71193000       0.90199100       0.13752000
    59  N          0.80123000       0.63534110       0.59503000
    60  N          0.19877000       0.13534110       0.40497000
    61  N          0.19877000       0.36465890       0.40497000
    62  N          0.80123000       0.86465890       0.59503000
    63  C          0.74183000       0.71161110       0.30223000
    64  C          0.25817000       0.21161110       0.69777000
    65  C          0.25817000       0.28838890       0.69777000
    66  C          0.74183000       0.78838890       0.30223000
    67  C          0.70823000       0.66716130       0.13323000
    68  C          0.29177000       0.16716130       0.86677000
    69  C          0.29177000       0.33283870       0.86677000
    70  C          0.70823000       0.83283870       0.13323000
    71  C          0.77363000       0.66894120       0.46433000
    72  C          0.22637000       0.16894120       0.53567000
    73  C          0.22637000       0.33105880       0.53567000
    74  C          0.77363000       0.83105880       0.46433000
    75  C          0.67304000       0.71195150       0.96927000
    76  C          0.32696000       0.21195150       0.03073000
    77  C          0.32696000       0.28804850       0.03073000
    78  C          0.67304000       0.78804850       0.96927000
    79  H          0.64980100       0.68635800       0.86128200
    80  H          0.35019900       0.18635800       0.13871800
    81  H          0.35019900       0.31364200       0.13871800
    82  H          0.64980100       0.81364200       0.86128200
