data_KUQYUT
_symmetry_space_group_name_H-M    'P1'
_symmetry_Int_Tables_number       1
loop_
_symmetry_equiv_pos_site_id
_symmetry_equiv_pos_as_xyz
1 x,y,z
_cell_length_a                   16.6355317
_cell_length_b                   7.462537
_cell_length_c                   15.6787913
_cell_angle_alpha                90.0
_cell_angle_beta                 90.0
_cell_angle_gamma                90.0
loop_
_atom_site_label
_atom_site_type_symbol
_atom_site_fract_x
_atom_site_fract_y
_atom_site_fract_z
     1  I          0.36552500       0.02600100       0.71940600
     2  I          0.63447500       0.97399900       0.21940600
     3  I          0.86552500       0.97399900       0.71940600
     4  I          0.13447500       0.02600100       0.21940600
     5  I          0.18609500       0.93936130       0.59074700
     6  I          0.81390500       0.06063870       0.09074700
     7  I          0.68609500       0.06063870       0.59074700
     8  I          0.31390500       0.93936130       0.09074700
     9  O          0.24895000       0.76641600       0.42287000
    10  O          0.75105000       0.23358400       0.92287000
    11  O          0.74895000       0.23358400       0.42287000
    12  O          0.25105000       0.76641600       0.92287000
    13  O          0.50975000       0.92241500       0.60097000
    14  O          0.49025000       0.07758500       0.10097000
    15  O          0.00975000       0.07758500       0.60097000
    16  O          0.99025000       0.92241500       0.10097000
    17  N          0.59498000       0.78820000       0.41039000
    18  N          0.40502000       0.21180000       0.91039000
    19  N          0.09498000       0.21180000       0.41039000
    20  N          0.90502000       0.78820000       0.91039000
    21  C          0.30017000       0.88841600       0.55078000
    22  C          0.69983000       0.11158400       0.05078000
    23  C          0.80017000       0.11158400       0.55078000
    24  C          0.19983000       0.88841600       0.05078000
    25  C          0.38917000       0.78701800       0.42668000
    26  C          0.61083000       0.21298200       0.92668000
    27  C          0.88917000       0.21298200       0.42668000
    28  C          0.11083000       0.78701800       0.92668000
    29  C          0.53559000       0.80320000       0.43818000
    30  C          0.46441000       0.19680000       0.93818000
    31  C          0.03559000       0.19680000       0.43818000
    32  C          0.96441000       0.80320000       0.93818000
    33  C          0.30537000       0.81181700       0.46488000
    34  C          0.69463000       0.18818300       0.96488000
    35  C          0.80537000       0.18818300       0.46488000
    36  C          0.19463000       0.81181700       0.96488000
    37  C          0.36766000       0.92161600       0.59728000
    38  C          0.63234000       0.07838400       0.09728000
    39  C          0.86766000       0.07838400       0.59728000
    40  C          0.13234000       0.92161600       0.09728000
    41  C          0.39448000       0.71801900       0.34141000
    42  C          0.60552000       0.28198100       0.84141000
    43  C          0.89448000       0.28198100       0.34141000
    44  C          0.10552000       0.71801900       0.84141000
    45  C          0.45497000       0.82651700       0.47338000
    46  C          0.54503000       0.17348300       0.97338000
    47  C          0.95497000       0.17348300       0.47338000
    48  C          0.04503000       0.82651700       0.97338000
    49  N          0.39909000       0.67020000       0.27599000
    50  N          0.60091000       0.32980000       0.77599000
    51  N          0.89909000       0.32980000       0.27599000
    52  N          0.10091000       0.67020000       0.77599000
    53  C          0.44776000       0.89551600       0.56307000
    54  C          0.55224000       0.10448400       0.06307000
    55  C          0.94776000       0.10448400       0.56307000
    56  C          0.05224000       0.89551600       0.06307000
    57  C          0.45898000       0.31571700       0.44838000
    58  C          0.54102000       0.68428300       0.94838000
    59  C          0.95898000       0.68428300       0.44838000
    60  C          0.04102000       0.31571700       0.94838000
    61  C          0.35408000       0.39811600       0.55058000
    62  C          0.64592000       0.60188400       0.05058000
    63  C          0.85408000       0.60188400       0.55058000
    64  C          0.14592000       0.39811600       0.05058000
    65  C          0.27209000       0.41331800       0.57621000
    66  C          0.72791000       0.58668200       0.07621000
    67  C          0.77209000       0.58668200       0.57621000
    68  C          0.22791000       0.41331800       0.07621000
    69  H          0.23093700       0.38087300       0.53904900
    70  H          0.76906300       0.61912700       0.03904900
    71  H          0.73093700       0.61912700       0.53904900
    72  H          0.26906300       0.38087300       0.03904900
    73  C          0.37728000       0.32771600       0.46828000
    74  C          0.62272000       0.67228400       0.96828000
    75  C          0.87728000       0.67228400       0.46828000
    76  C          0.12272000       0.32771600       0.96828000
    77  C          0.48259000       0.24220000       0.36969000
    78  C          0.51741000       0.75780000       0.86969000
    79  C          0.98259000       0.75780000       0.36969000
    80  C          0.01741000       0.24220000       0.86969000
    81  H          0.53694800       0.23268500       0.35699400
    82  H          0.46305200       0.76731500       0.85699400
    83  H          0.03694800       0.76731500       0.35699400
    84  H          0.96305200       0.23268500       0.85699400
    85  C          0.32338000       0.26620000       0.40669000
    86  C          0.67662000       0.73380000       0.90669000
    87  C          0.82338000       0.73380000       0.40669000
    88  C          0.17662000       0.26620000       0.90669000
    89  H          0.26836500       0.27229500       0.41725800
    90  H          0.73163500       0.72770500       0.91725800
    91  H          0.76836500       0.72770500       0.41725800
    92  H          0.23163500       0.27229500       0.91725800
    93  C          0.34931000       0.19720000       0.33181000
    94  C          0.65069000       0.80280000       0.83181000
    95  C          0.84931000       0.80280000       0.33181000
    96  C          0.15069000       0.19720000       0.83181000
    97  H          0.31182400       0.15520600       0.29246700
    98  H          0.68817600       0.84479400       0.79246700
    99  H          0.81182400       0.84479400       0.29246700
   100  H          0.18817600       0.15520600       0.79246700
   101  C          0.31211700       0.52520000       0.71371500
   102  C          0.68788300       0.47480000       0.21371500
   103  C          0.81211700       0.47480000       0.71371500
   104  C          0.18788300       0.52520000       0.21371500
   105  H          0.29778500       0.56562800       0.76779500
   106  H          0.70221500       0.43437200       0.26779500
   107  H          0.79778500       0.43437200       0.76779500
   108  H          0.20221500       0.56562800       0.26779500
   109  C          0.39101500       0.51620000       0.69141100
   110  C          0.60898500       0.48380000       0.19141100
   111  C          0.89101500       0.48380000       0.69141100
   112  C          0.10898500       0.51620000       0.19141100
   113  H          0.43041100       0.55108200       0.72989400
   114  H          0.56958900       0.44891800       0.22989400
   115  H          0.93041100       0.44891800       0.72989400
   116  H          0.06958900       0.55108200       0.22989400
   117  C          0.41341000       0.45131600       0.60948000
   118  C          0.58659000       0.54868400       0.10948000
   119  C          0.91341000       0.54868400       0.60948000
   120  C          0.08659000       0.45131600       0.10948000
   121  C          0.49591000       0.43741900       0.58601300
   122  C          0.50409000       0.56258100       0.08601300
   123  C         -0.00409000       0.56258100       0.58601300
   124  C          0.00409000       0.43741900       0.08601300
   125  H          0.53544400       0.47283000       0.62447300
   126  H          0.46455600       0.52717000       0.12447300
   127  H          0.03544400       0.52717000       0.62447300
   128  H          0.96455600       0.47283000       0.12447300
   129  C          0.25401300       0.47720000       0.65721300
   130  C          0.74598700       0.52280000       0.15721300
   131  C          0.75401300       0.52280000       0.65721300
   132  C          0.24598700       0.47720000       0.15721300
   133  H          0.20043200       0.48637200       0.67336500
   134  H          0.79956800       0.51362800       0.17336500
   135  H          0.70043200       0.51362800       0.67336500
   136  H          0.29956800       0.48637200       0.17336500
   137  C          0.51758000       0.37320000       0.50891000
   138  C          0.48242000       0.62680000       0.00891000
   139  C          0.01758000       0.62680000       0.50891000
   140  C          0.98242000       0.37320000       0.00891000
   141  H          0.57173000       0.36684800       0.49485400
   142  H          0.42827000       0.63315200      -0.00514600
   143  H          0.07173000       0.63315200       0.49485400
   144  H          0.92827000       0.36684800      -0.00514600
   145  C          0.42861000       0.18620000       0.31261100
   146  C          0.57139000       0.81380000       0.81261100
   147  C          0.92861000       0.81380000       0.31261100
   148  C          0.07139000       0.18620000       0.81261100
   149  H          0.44522000       0.13962100       0.26043100
   150  H          0.55478000       0.86037900       0.76043100
   151  H          0.94522000       0.86037900       0.26043100
   152  H          0.05478000       0.13962100       0.76043100
