data_KUQZUU
_symmetry_space_group_name_H-M    'P1'
_symmetry_Int_Tables_number       1
loop_
_symmetry_equiv_pos_site_id
_symmetry_equiv_pos_as_xyz
1 x,y,z
_cell_length_a                   7.4072
_cell_length_b                   15.8425
_cell_length_c                   17.0776
_cell_angle_alpha                90.0
_cell_angle_beta                 101.26317
_cell_angle_gamma                90.0
loop_
_atom_site_label
_atom_site_type_symbol
_atom_site_fract_x
_atom_site_fract_y
_atom_site_fract_z
     1  N          0.83732000       0.43097120       0.63845120
     2  N          0.16268000       0.93097120       0.86154880
     3  N          0.16268000       0.56902880       0.36154880
     4  N          0.83732000       0.06902880       0.13845120
     5  H          0.91970000       0.47430000       0.66730000
     6  H          0.08030000       0.97430000       0.83270000
     7  H          0.08030000       0.52570000       0.33270000
     8  H          0.91970000       0.02570000       0.16730000
     9  C          0.73423000       0.42829140       0.56364140
    10  C          0.26577000       0.92829140       0.93635860
    11  C          0.26577000       0.57170860       0.43635860
    12  C          0.73423000       0.07170860       0.06364140
    13  N          0.63042000       0.35893120       0.54630110
    14  N          0.36958000       0.85893120       0.95369890
    15  N          0.36958000       0.64106880       0.45369890
    16  N          0.63042000       0.14106880       0.04630110
    17  C          0.67143000       0.31422140       0.61446140
    18  C          0.32857000       0.81422140       0.88553860
    19  C          0.32857000       0.68577860       0.38553860
    20  C          0.67143000       0.18577860       0.11446140
    21  C          0.79733000       0.35756140       0.67074130
    22  C          0.20267000       0.85756140       0.82925870
    23  C          0.20267000       0.64243860       0.32925870
    24  C          0.79733000       0.14243860       0.17074130
    25  N          0.57752000       0.23607120       0.62420120
    26  N          0.42248000       0.73607120       0.87579880
    27  N          0.42248000       0.76392880       0.37579880
    28  N          0.57752000       0.26392880       0.12420120
    29  O          0.51642000       0.19478110       0.56434100
    30  O          0.48358000       0.69478110       0.93565900
    31  O          0.48358000       0.80521890       0.43565900
    32  O          0.51642000       0.30521890       0.06434100
    33  O          0.56342000       0.21492110       0.69197110
    34  O          0.43658000       0.71492110       0.80802890
    35  O          0.43658000       0.78507890       0.30802890
    36  O          0.56342000       0.28507890       0.19197110
    37  N          0.88972000       0.33278130       0.74880120
    38  N          0.11028000       0.83278130       0.75119880
    39  N          0.11028000       0.66721870       0.25119880
    40  N          0.88972000       0.16721870       0.24880120
    41  O          0.92022000       0.25732100       0.76193110
    42  O          0.07978000       0.75732100       0.73806890
    43  O          0.07978000       0.74267900       0.23806890
    44  O          0.92022000       0.24267900       0.26193110
    45  O          0.93492000       0.38890110       0.79865100
    46  O          0.06508000       0.88890110       0.70134900
    47  O          0.06508000       0.61109890       0.20134900
    48  O          0.93492000       0.11109890       0.29865100
    49  H          0.58440000       0.44421900       0.40120000
    50  H          0.41560000       0.94421900       0.09880000
    51  H          0.41560000       0.55578100       0.59880000
    52  H          0.58440000       0.05578100       0.90120000
    53  N          0.66492000       0.48998120       0.42809120
    54  N          0.33508000       0.98998120       0.07190880
    55  N          0.33508000       0.51001880       0.57190880
    56  N          0.66492000       0.01001880       0.92809120
    57  C          0.74533000       0.49473140       0.50586140
    58  C          0.25467000      -0.00526860      -0.00586140
    59  C          0.25467000       0.50526860       0.49413860
    60  C          0.74533000       0.00526860       0.00586140
    61  N          0.84192000       0.56593110       0.52455120
    62  N          0.15808000       0.06593110       0.97544880
    63  N          0.15808000       0.43406890       0.47544880
    64  N          0.84192000       0.93406890       0.02455120
    65  C          0.82193000       0.60699140       0.45479140
    66  C          0.17807000       0.10699140       0.04520860
    67  C          0.17807000       0.39300860       0.54520860
    68  C          0.82193000       0.89300860       0.95479140
    69  C          0.71413000       0.56176140       0.39433140
    70  C          0.28587000       0.06176140       0.10566860
    71  C          0.28587000       0.43823860       0.60566860
    72  C          0.71413000       0.93823860       0.89433140
    73  N          0.90123000       0.69046120       0.45262130
    74  N          0.09877000       0.19046120       0.04737870
    75  N          0.09877000       0.30953880       0.54737870
    76  N          0.90123000       0.80953880       0.95262130
    77  O          0.01762000       0.71202110       0.50961120
    78  O         -0.01762000       0.21202110       0.99038880
    79  O         -0.01762000       0.28797890       0.49038880
    80  O          0.01762000       0.78797890       0.00961120
    81  O          0.84413000       0.73487110       0.39457120
    82  O          0.15587000       0.23487110       0.10542880
    83  O          0.15587000       0.26512890       0.60542880
    84  O          0.84413000       0.76512890       0.89457120
    85  N          0.65473000       0.57525120       0.31017120
    86  N          0.34527000       0.07525120       0.18982880
    87  N          0.34527000       0.42474880       0.68982880
    88  N          0.65473000       0.92474880       0.81017120
    89  O          0.74592000       0.62146110       0.27566110
    90  O          0.25408000       0.12146110       0.22433890
    91  O          0.25408000       0.37853890       0.72433890
    92  O          0.74592000       0.87853890       0.77566110
    93  O          0.51592000       0.53746110       0.27698110
    94  O          0.48408000       0.03746110       0.22301890
    95  O          0.48408000       0.46253890       0.72301890
    96  O          0.51592000       0.96253890       0.77698110
    97  N          0.02393000       0.56241110       0.78138120
    98  N          0.97607000       0.06241110       0.71861880
    99  N          0.97607000       0.43758890       0.21861880
   100  N          0.02393000       0.93758890       0.28138120
   101  C          0.17313000       0.55391140       0.83894140
   102  C          0.82687000       0.05391140       0.66105860
   103  C          0.82687000       0.44608860       0.16105860
   104  C          0.17313000       0.94608860       0.33894140
   105  H          0.28910000       0.54200000       0.82560000
   106  H          0.71090000       0.04200000       0.67440000
   107  H          0.71090000       0.45800000       0.17440000
   108  H          0.28910000       0.95800000       0.32560000
   109  C          0.15893000       0.56228140       0.91694150
   110  C          0.84107000       0.06228140       0.58305850
   111  C          0.84107000       0.43771860       0.08305850
   112  C          0.15893000       0.93771860       0.41694150
   113  H          0.26490000       0.55590000       0.95790000
   114  H          0.73510000       0.05590000       0.54210000
   115  H          0.73510000       0.44410000       0.04210000
   116  H          0.26490000       0.94410000       0.45790000
   117  N         -0.00817000       0.57988110       0.93637120
   118  N          0.00817000       0.07988110       0.56362880
   119  N          0.00817000       0.42011890       0.06362880
   120  N         -0.00817000       0.92011890       0.43637120
   121  C          0.84123000       0.58458140       0.87665150
   122  C          0.15877000       0.08458140       0.62334850
   123  C          0.15877000       0.41541860       0.12334850
   124  C          0.84123000       0.91541860       0.37665150
   125  H          0.72320000       0.59310000       0.88930000
   126  H          0.27680000       0.09310000       0.61070000
   127  H          0.27680000       0.40690000       0.11070000
   128  H          0.72320000       0.90690000       0.38930000
   129  C          0.85743000       0.57723140       0.79901150
   130  C          0.14257000       0.07723140       0.70098850
   131  C          0.14257000       0.42276860       0.20098850
   132  C          0.85743000       0.92276860       0.29901150
   133  H          0.75200000       0.58250000       0.75750000
   134  H          0.24800000       0.08250000       0.74250000
   135  H          0.24800000       0.41750000       0.24250000
   136  H          0.75200000       0.91750000       0.25750000
   137  O          0.04382000       0.55623100       0.70361100
   138  O          0.95618000       0.05623100       0.79638900
   139  O          0.95618000       0.44376900       0.29638900
   140  O          0.04382000       0.94376900       0.20361100
   141  O         -0.02148000       0.58993100       0.00915100
   142  O          0.02148000       0.08993100       0.49084900
   143  O          0.02148000       0.41006900       0.99084900
   144  O         -0.02148000       0.91006900       0.50915100
   145  N          0.46062000       0.30200120       0.36870110
   146  N          0.53938000       0.80200120       0.13129890
   147  N          0.53938000       0.69799880       0.63129890
   148  N          0.46062000       0.19799880       0.86870110
   149  C          0.31193000       0.25827150       0.38061140
   150  C          0.68807000       0.75827150       0.11938860
   151  C          0.68807000       0.74172850       0.61938860
   152  C          0.31193000       0.24172850       0.88061140
   153  H          0.19660000       0.28600000       0.37580000
   154  H          0.80340000       0.78600000       0.12420000
   155  H          0.80340000       0.71400000       0.62420000
   156  H          0.19660000       0.21400000       0.87580000
   157  C          0.32593000       0.17489150       0.39943140
   158  C          0.67407000       0.67489150       0.10056860
   159  C          0.67407000       0.82510850       0.60056860
   160  C          0.32593000       0.32510850       0.89943140
   161  H          0.22020000       0.14480000       0.40770000
   162  H          0.77980000       0.64480000       0.09230000
   163  H          0.77980000       0.85520000       0.59230000
   164  H          0.22020000       0.35520000       0.90770000
   165  N          0.49043000       0.13409120       0.40659120
   166  N          0.50957000       0.63409120       0.09340880
   167  N          0.50957000       0.86590880       0.59340880
   168  N          0.49043000       0.36590880       0.90659120
   169  C          0.63993000       0.17904150       0.39561140
   170  C          0.36007000       0.67904150       0.10438860
   171  C          0.36007000       0.82095850       0.60438860
   172  C          0.63993000       0.32095850       0.89561140
   173  H          0.75630000       0.15200000       0.40140000
   174  H          0.24370000       0.65200000       0.09860000
   175  H          0.24370000       0.84800000       0.59860000
   176  H          0.75630000       0.34800000       0.90140000
   177  C          0.62393000       0.26251140       0.37641140
   178  C          0.37607000       0.76251140       0.12358860
   179  C          0.37607000       0.73748860       0.62358860
   180  C          0.62393000       0.23748860       0.87641140
   181  H          0.72900000       0.29310000       0.36840000
   182  H          0.27100000       0.79310000       0.13160000
   183  H          0.27100000       0.70690000       0.63160000
   184  H          0.72900000       0.20690000       0.86840000
   185  O          0.44402000       0.38291100       0.34852100
   186  O          0.55598000       0.88291100       0.15147900
   187  O          0.55598000       0.61708900       0.65147900
   188  O          0.44402000       0.11708900       0.84852100
   189  O          0.50512000       0.05520100       0.42528110
   190  O          0.49488000       0.55520100       0.07471890
   191  O          0.49488000       0.94479900       0.57471890
   192  O          0.50512000       0.44479900       0.92528110
