data_KUWNUN
_symmetry_space_group_name_H-M    'P1'
_symmetry_Int_Tables_number       1
loop_
_symmetry_equiv_pos_site_id
_symmetry_equiv_pos_as_xyz
1 x,y,z
_cell_length_a                   3.89635
_cell_length_b                   11.717415
_cell_length_c                   14.726618
_cell_angle_alpha                70.3193
_cell_angle_beta                 82.5704
_cell_angle_gamma                87.8384
loop_
_atom_site_label
_atom_site_type_symbol
_atom_site_fract_x
_atom_site_fract_y
_atom_site_fract_z
     1  Br         0.62297300       0.45747200       0.21306200
     2  Br         0.37702700       0.54252800       0.78693800
     3  C          0.13724000       0.67930130       0.38580110
     4  C          0.86276000       0.32069870       0.61419890
     5  C         -0.02814000       0.78690130       0.33885110
     6  C          0.02814000       0.21309870       0.66114890
     7  H          0.93820000       0.80820000       0.27240000
     8  H          0.06180000       0.19180000       0.72760000
     9  C          0.85866000       0.86159120       0.39186110
    10  C          0.14134000       0.13840880       0.60813890
    11  N          0.68846000       0.97516120       0.34220100
    12  N          0.31154000       0.02483880       0.65779900
    13  O          0.56437000       0.98295110       0.26802900
    14  O          0.43563000       0.01704890       0.73197100
    15  O          0.67656000       0.05613110       0.37786100
    16  O          0.32344000       0.94386890       0.62213900
    17  C          0.89606000       0.83491130       0.48887110
    18  C          0.10394000       0.16508870       0.51112890
    19  H          0.81900000       0.88940000       0.52250000
    20  H          0.18100000       0.11060000       0.47750000
    21  C          0.05024000       0.72587140       0.53550110
    22  C          0.94976000       0.27412860       0.46449890
    23  H          0.07320000       0.70380000       0.60270000
    24  H          0.92680000       0.29620000       0.39730000
    25  C          0.17114000       0.64879130       0.48494110
    26  C          0.82886000       0.35120870       0.51505890
    27  H          0.27780000       0.57460000       0.51770000
    28  H          0.72220000       0.42540000       0.48230000
    29  C          0.28264000       0.60367130       0.33208120
    30  C          0.71736000       0.39632870       0.66791880
    31  C          0.41594000       0.54365120       0.28563100
    32  C          0.58406000       0.45634880       0.71436900
    33  N          0.96124000       0.33073120       0.09286100
    34  N          0.03876000       0.66926880       0.90713900
    35  C          0.08804000       0.22107130       0.13929110
    36  C          0.91196000       0.77892870       0.86070890
    37  H          0.17070000       0.20880000       0.19980000
    38  H          0.82930000       0.79120000       0.80020000
    39  C          0.10514000       0.12530130       0.10406100
    40  C          0.89486000       0.87469870       0.89593900
    41  H          0.19570000       0.04920000       0.13950000
    42  H          0.80430000       0.95080000       0.86050000
    43  C         -0.01416000       0.14373120       0.01525100
    44  C          0.01416000       0.85626880       0.98474900
    45  N         -0.02046000       0.05224110       0.97135100
    46  N          0.02046000       0.94775890       0.02864900
    47  C          0.86584000       0.25767120       0.96411890
    48  C          0.13416000       0.74232880       0.03588110
    49  H          0.79250000       0.27370000       0.90200000
    50  H          0.20750000       0.72630000       0.09800000
    51  C          0.85624000       0.34708130       0.00652110
    52  C          0.14376000       0.65291870      -0.00652110
    53  H          0.77010000       0.42450000       0.97220000
    54  H          0.22990000       0.57550000       0.02780000
