data_KUWVIJ
_symmetry_space_group_name_H-M    'P1'
_symmetry_Int_Tables_number       1
loop_
_symmetry_equiv_pos_site_id
_symmetry_equiv_pos_as_xyz
1 x,y,z
_cell_length_a                   19.0785
_cell_length_b                   7.206814
_cell_length_c                   19.4434
_cell_angle_alpha                90.0
_cell_angle_beta                 117.83312
_cell_angle_gamma                90.0
loop_
_atom_site_label
_atom_site_type_symbol
_atom_site_fract_x
_atom_site_fract_y
_atom_site_fract_z
     1  C          0.49130190       0.47385000       0.73578180
     2  C          0.00869810       0.97385000       0.76421820
     3  C          0.50869810       0.52615000       0.26421820
     4  C         -0.00869810       0.02615000       0.23578180
     5  H          0.54490000       0.47610000       0.74910000
     6  H          0.95510000       0.97610000       0.75090000
     7  H          0.45510000       0.52390000       0.25090000
     8  H          0.04490000       0.02390000       0.24910000
     9  C          0.46653180       0.51405000       0.79146180
    10  C          0.03346820       0.01405000       0.70853820
    11  C          0.53346820       0.48595000       0.20853820
    12  C          0.96653180      -0.01405000       0.29146180
    13  C          0.38574190       0.50935000       0.76917180
    14  C          0.11425810       0.00935000       0.73082820
    15  C          0.61425810       0.49065000       0.23082820
    16  C          0.88574190      -0.00935000       0.26917180
    17  H          0.36830000       0.53510000       0.80550000
    18  H          0.13170000       0.03510000       0.69450000
    19  H          0.63170000       0.46490000       0.19450000
    20  H          0.86830000       0.96490000       0.30550000
    21  C          0.33111180       0.46664000       0.69317180
    22  C          0.16888820       0.96664000       0.80682820
    23  C          0.66888820       0.53336000       0.30682820
    24  C          0.83111180       0.03336000       0.19317180
    25  C          0.35393170       0.42204000       0.63637170
    26  C          0.14606830       0.92204000       0.86362830
    27  C          0.64606830       0.57796000       0.36362830
    28  C          0.85393170       0.07796000       0.13637170
    29  C          0.31390170       0.36884000       0.55267170
    30  C          0.18609830       0.86884000       0.94732830
    31  C          0.68609830       0.63116000       0.44732830
    32  C          0.81390170       0.13116000       0.05267170
    33  C          0.23726180       0.31974000       0.49805180
    34  C          0.26273820       0.81974000       0.00194820
    35  C          0.76273820       0.68026000       0.50194820
    36  C          0.73726180       0.18026000      -0.00194820
    37  C          0.21812000       0.28735000       0.42088190
    38  C          0.28188000       0.78735000       0.07911810
    39  C          0.78188000       0.71265000       0.57911810
    40  C          0.71812000       0.21265000       0.92088190
    41  H          0.16640000       0.25840000       0.38460000
    42  H          0.33360000       0.75840000       0.11540000
    43  H          0.83360000       0.74160000       0.61540000
    44  H          0.66640000       0.24160000       0.88460000
    45  C          0.27672000       0.29845000       0.39890190
    46  C          0.22328000       0.79845000       0.10109810
    47  C          0.72328000       0.70155000       0.60109810
    48  C          0.77672000       0.20155000       0.89890190
    49  C          0.35442000       0.33475000       0.45082190
    50  C          0.14558000       0.83475000       0.04917810
    51  C          0.64558000       0.66525000       0.54917810
    52  C          0.85442000       0.16525000       0.95082190
    53  H          0.39370000       0.33600000       0.43540000
    54  H          0.10630000       0.83600000       0.06460000
    55  H          0.60630000       0.66400000       0.56460000
    56  H          0.89370000       0.16400000       0.93540000
    57  C          0.37146180       0.36895000       0.52668180
    58  C          0.12853820       0.86895000       0.97331820
    59  C          0.62853820       0.63105000       0.47331820
    60  C          0.87146180       0.13105000       0.02668180
    61  C          0.45062000       0.40265000       0.59346190
    62  C          0.04938000       0.90265000       0.90653810
    63  C          0.54938000       0.59735000       0.40653810
    64  C          0.95062000       0.09735000       0.09346190
    65  C          0.43585180       0.43105000       0.66161180
    66  C          0.06414820       0.93105000       0.83838820
    67  C          0.56414820       0.56895000       0.33838820
    68  C          0.93585180       0.06895000       0.16161180
    69  O          0.51419130       0.40664000       0.59366130
    70  O          0.98580870       0.90664000       0.90633870
    71  O          0.48580870       0.59336000       0.40633870
    72  O          0.01419130       0.09336000       0.09366130
    73  C          0.52752000       0.57285000       0.87016190
    74  C          0.97248000       0.07285000       0.62983810
    75  C          0.47248000       0.42715000       0.12983810
    76  C          0.02752000       0.92715000       0.37016190
    77  O          0.59766140       0.57054000       0.88985130
    78  O          0.90233860       0.07054000       0.61014870
    79  O          0.40233860       0.42946000       0.11014870
    80  O          0.09766140       0.92946000       0.38985130
    81  O          0.49649130       0.63104000       0.91474120
    82  O          0.00350870       0.13104000       0.58525880
    83  O          0.50350870       0.36896000       0.08525880
    84  O         -0.00350870       0.86896000       0.41474120
    85  C          0.55232000       0.70406000       0.99005190
    86  C          0.94768000       0.20406000       0.50994810
    87  C          0.44768000       0.29594000       0.00994810
    88  C          0.05232000       0.79594000       0.49005190
    89  H          0.52390000       0.75220000       0.01590000
    90  H          0.97610000       0.25220000       0.48410000
    91  H          0.47610000       0.24780000       0.98410000
    92  H          0.02390000       0.74780000       0.51590000
    93  H          0.58280000       0.80150000       0.98330000
    94  H          0.91720000       0.30150000       0.51670000
    95  H          0.41720000       0.19850000       0.01670000
    96  H          0.08280000       0.69850000       0.48330000
    97  H          0.58710000       0.60660000       0.02090000
    98  H          0.91290000       0.10660000       0.47910000
    99  H          0.41290000       0.39340000       0.97910000
   100  H          0.08710000       0.89340000       0.52090000
   101  N          0.24704170       0.49475000       0.67393180
   102  N          0.25295830      -0.00525000       0.82606820
   103  N          0.75295830       0.50525000       0.32606820
   104  N          0.74704170       0.00525000       0.17393180
   105  O          0.20472130       0.57514000       0.61354150
   106  O          0.29527870       0.07514000       0.88645850
   107  O          0.79527870       0.42486000       0.38645850
   108  O          0.70472130       0.92486000       0.11354150
   109  O          0.22696150       0.43946000       0.72154150
   110  O          0.27303850       0.93946000       0.77845850
   111  O          0.77303850       0.56054000       0.27845850
   112  O          0.72696150       0.06054000       0.22154150
   113  N          0.17275170       0.27964000       0.51758190
   114  N          0.32724830       0.77964000       0.98241810
   115  N          0.82724830       0.72036000       0.48241810
   116  N          0.67275170       0.22036000       0.01758190
   117  O          0.10545140       0.32444000       0.47039150
   118  O          0.39454860       0.82444000       0.02960850
   119  O          0.89454860       0.67556000       0.52960850
   120  O          0.60545140       0.17556000       0.97039150
   121  O          0.19098140       0.19954000       0.57919160
   122  O          0.30901860       0.69954000       0.92080840
   123  O          0.80901860       0.80046000       0.42080840
   124  O          0.69098140       0.30046000       0.07919160
   125  N          0.25422000       0.26155000       0.31586170
   126  N          0.24578000       0.76155000       0.18413830
   127  N          0.74578000       0.73845000       0.68413830
   128  N          0.75422000       0.23845000       0.81586170
   129  O          0.30640170       0.25936000       0.29689150
   130  O          0.19359830       0.75936000       0.20310850
   131  O          0.69359830       0.74064000       0.70310850
   132  O          0.80640170       0.24064000       0.79689150
   133  O          0.18454180       0.23706000       0.27095150
   134  O          0.31545820       0.73706000       0.22904850
   135  O          0.81545820       0.76294000       0.72904850
   136  O          0.68454180       0.26294000       0.77095150
   137  S          0.51751600       0.93712180       0.68590700
   138  S          0.98248400       0.43712180       0.81409300
   139  S          0.48248400       0.06287820       0.31409300
   140  S          0.01751600       0.56287820       0.18590700
   141  C          0.51803000      -0.01734000       0.77412000
   142  C          0.98197000       0.48266000       0.72588000
   143  C          0.48197000       0.01734000       0.22588000
   144  C          0.01803000       0.51734000       0.27412000
   145  H          0.56520000       0.00220000       0.81940000
   146  H          0.93480000       0.50220000       0.68060000
   147  H          0.43480000      -0.00220000       0.18060000
   148  H          0.06520000       0.49780000       0.31940000
   149  C          0.44893000      -0.01184000       0.77432000
   150  C          0.05107000       0.48816000       0.72568000
   151  C          0.55107000       0.01184000       0.22568000
   152  C          0.94893000       0.51184000       0.27432000
   153  H          0.44640000       0.01140000       0.82020000
   154  H          0.05360000       0.51140000       0.67980000
   155  H          0.55360000      -0.01140000       0.17980000
   156  H          0.94640000       0.48860000       0.32020000
   157  S          0.36353600       0.95165140       0.68823500
   158  S          0.13646400       0.45165140       0.81176500
   159  S          0.63646400       0.04834860       0.31176500
   160  S          0.86353600       0.54834860       0.18823500
   161  C          0.41382000       0.91765000       0.63272000
   162  C          0.08618000       0.41765000       0.86728000
   163  C          0.58618000       0.08235000       0.36728000
   164  C          0.91382000       0.58235000       0.13272000
   165  C          0.37572190       0.87605000       0.55668190
   166  C          0.12427810       0.37605000       0.94331810
   167  C          0.62427810       0.12395000       0.44331810
   168  C          0.87572190       0.62395000       0.05668190
   169  S          0.42490600       0.84659170       0.50040600
   170  S          0.07509400       0.34659170      -0.00040600
   171  S          0.57509400       0.15340830       0.49959400
   172  S          0.92490600       0.65340830       0.00040600
   173  C          0.33982000       0.81055000       0.41412000
   174  C          0.16018000       0.31055000       0.08588000
   175  C          0.66018000       0.18945000       0.58588000
   176  C          0.83982000       0.68945000       0.91412000
   177  H          0.34230000       0.78930000       0.36810000
   178  H          0.15770000       0.28930000       0.13190000
   179  H          0.65770000       0.21070000       0.63190000
   180  H          0.84230000       0.71070000       0.86810000
   181  C          0.27052000       0.81365000       0.41472000
   182  C          0.22948000       0.31365000       0.08528000
   183  C          0.72948000       0.18635000       0.58528000
   184  C          0.77052000       0.68635000       0.91472000
   185  H          0.22310000       0.79710000       0.36930000
   186  H          0.27690000       0.29710000       0.13070000
   187  H          0.77690000       0.20290000       0.63070000
   188  H          0.72310000       0.70290000       0.86930000
   189  S          0.27197500       0.84998130       0.50392500
   190  S          0.22802500       0.34998130      -0.00392500
   191  S          0.72802500       0.15001870       0.49607500
   192  S          0.77197500       0.65001870       0.00392500
