data_KUWZIN
_symmetry_space_group_name_H-M    'P1'
_symmetry_Int_Tables_number       1
loop_
_symmetry_equiv_pos_site_id
_symmetry_equiv_pos_as_xyz
1 x,y,z
_cell_length_a                   18.949013
_cell_length_b                   10.34227
_cell_length_c                   17.942812
_cell_angle_alpha                90.0
_cell_angle_beta                 90.0
_cell_angle_gamma                90.0
loop_
_atom_site_label
_atom_site_type_symbol
_atom_site_fract_x
_atom_site_fract_y
_atom_site_fract_z
     1  I          0.85179200       0.28947300       0.68951200
     2  I          0.64820800       0.21052700       0.18951200
     3  I          0.35179200       0.21052700       0.31048800
     4  I          0.14820800       0.28947300       0.81048800
     5  I          0.14820800       0.71052700       0.31048800
     6  I          0.35179200       0.78947300       0.81048800
     7  I          0.64820800       0.78947300       0.68951200
     8  I          0.85179200       0.71052700       0.18951200
     9  I          0.46093200       0.22858400       0.12307200
    10  I          0.03906800       0.27141600       0.62307200
    11  I          0.96093200       0.27141600       0.87692800
    12  I          0.53906800       0.22858400       0.37692800
    13  I          0.53906800       0.77141600       0.87692800
    14  I          0.96093200       0.72858400       0.37692800
    15  I          0.03906800       0.72858400       0.12307200
    16  I          0.46093200       0.77141600       0.62307200
    17  C          0.52608190       0.25643000       0.77532000
    18  C          0.97391810       0.24357000       0.27532000
    19  C          0.02608190       0.24357000       0.22468000
    20  C          0.47391810       0.25643000       0.72468000
    21  C          0.47391810       0.74357000       0.22468000
    22  C          0.02608190       0.75643000       0.72468000
    23  C          0.97391810       0.75643000       0.77532000
    24  C          0.52608190       0.74357000       0.27532000
    25  C          0.74422000       0.27954000       0.71742190
    26  C          0.75578000       0.22046000       0.21742190
    27  C          0.24422000       0.22046000       0.28257810
    28  C          0.25578000       0.27954000       0.78257810
    29  C          0.25578000       0.72046000       0.28257810
    30  C          0.24422000       0.77954000       0.78257810
    31  C          0.75578000       0.77954000       0.71742190
    32  C          0.74422000       0.72046000       0.21742190
    33  C          0.69832000       0.37444000       0.69342000
    34  C          0.80168000       0.12556000       0.19342000
    35  C          0.19832000       0.12556000       0.30658000
    36  C          0.30168000       0.37444000       0.80658000
    37  C          0.30168000       0.62556000       0.30658000
    38  C          0.19832000       0.87444000       0.80658000
    39  C          0.80168000       0.87444000       0.69342000
    40  C          0.69832000       0.62556000       0.19342000
    41  H          0.71520000       0.44460000       0.66430000
    42  H          0.78480000       0.05540000       0.16430000
    43  H          0.21520000       0.05540000       0.33570000
    44  H          0.28480000       0.44460000       0.83570000
    45  H          0.28480000       0.55540000       0.33570000
    46  H          0.21520000       0.94460000       0.83570000
    47  H          0.78480000       0.94460000       0.66430000
    48  H          0.71520000       0.55540000       0.16430000
    49  C          0.60236190       0.26443000       0.75377190
    50  C          0.89763810       0.23557000       0.25377190
    51  C          0.10236190       0.23557000       0.24622810
    52  C          0.39763810       0.26443000       0.74622810
    53  C          0.39763810       0.73557000       0.24622810
    54  C          0.10236190       0.76443000       0.74622810
    55  C          0.89763810       0.76443000       0.75377190
    56  C          0.60236190       0.73557000       0.25377190
    57  C          0.64942000       0.17044000       0.77822000
    58  C          0.85058000       0.32956000       0.27822000
    59  C          0.14942000       0.32956000       0.22178000
    60  C          0.35058000       0.17044000       0.72178000
    61  C          0.35058000       0.82956000       0.22178000
    62  C          0.14942000       0.67044000       0.72178000
    63  C          0.85058000       0.67044000       0.77822000
    64  C          0.64942000       0.82956000       0.27822000
    65  H          0.63270000       0.10060000       0.80770000
    66  H          0.86730000       0.39940000       0.30770000
    67  H          0.13270000       0.39940000       0.19230000
    68  H          0.36730000       0.10060000       0.69230000
    69  H          0.36730000       0.89940000       0.19230000
    70  H          0.13270000       0.60060000       0.69230000
    71  H          0.86730000       0.60060000       0.80770000
    72  H          0.63270000       0.89940000       0.30770000
    73  C          0.62752000       0.36674000       0.71182000
    74  C          0.87248000       0.13326000       0.21182000
    75  C          0.12752000       0.13326000       0.28818000
    76  C          0.37248000       0.36674000       0.78818000
    77  C          0.37248000       0.63326000       0.28818000
    78  C          0.12752000       0.86674000       0.78818000
    79  C          0.87248000       0.86674000       0.71182000
    80  C          0.62752000       0.63326000       0.21182000
    81  H          0.59600000       0.43220000       0.69550000
    82  H          0.90400000       0.06780000       0.19550000
    83  H          0.09600000       0.06780000       0.30450000
    84  H          0.40400000       0.43220000       0.80450000
    85  H          0.40400000       0.56780000       0.30450000
    86  H          0.09600000       0.93220000       0.80450000
    87  H          0.90400000       0.93220000       0.69550000
    88  H          0.59600000       0.56780000       0.19550000
    89  C          0.72022000       0.17724000       0.76022000
    90  C          0.77978000       0.32276000       0.26022000
    91  C          0.22022000       0.32276000       0.23978000
    92  C          0.27978000       0.17724000       0.73978000
    93  C          0.27978000       0.82276000       0.23978000
    94  C          0.22022000       0.67724000       0.73978000
    95  C          0.77978000       0.67724000       0.76022000
    96  C          0.72022000       0.82276000       0.26022000
    97  H          0.75200000       0.11240000       0.77700000
    98  H          0.74800000       0.38760000       0.27700000
    99  H          0.25200000       0.38760000       0.22300000
   100  H          0.24800000       0.11240000       0.72300000
   101  H          0.24800000       0.88760000       0.22300000
   102  H          0.25200000       0.61240000       0.72300000
   103  H          0.74800000       0.61240000       0.77700000
   104  H          0.75200000       0.88760000       0.27700000
   105  C          0.48702000       0.23404000       0.00952000
   106  C          0.01298000       0.26596000       0.50952000
   107  C          0.98702000       0.26596000       0.99048000
   108  C          0.51298000       0.23404000       0.49048000
   109  C          0.51298000       0.76596000       0.99048000
   110  C          0.98702000       0.73404000       0.49048000
   111  C          0.01298000       0.73404000       0.00952000
   112  C          0.48702000       0.76596000       0.50952000
   113  C          0.53072000       0.32974000       0.98212000
   114  C          0.96928000       0.17026000       0.48212000
   115  C          0.03072000       0.17026000       0.01788000
   116  C          0.46928000       0.32974000       0.51788000
   117  C          0.46928000       0.67026000       0.01788000
   118  C          0.03072000       0.82974000       0.51788000
   119  C          0.96928000       0.82974000       0.98212000
   120  C          0.53072000       0.67026000       0.48212000
   121  H          0.55140000       0.39110000       0.01480000
   122  H          0.94860000       0.10890000       0.51480000
   123  H          0.05140000       0.10890000       0.98520000
   124  H          0.44860000       0.39110000       0.48520000
   125  H          0.44860000       0.60890000       0.98520000
   126  H          0.05140000       0.89110000       0.48520000
   127  H          0.94860000       0.89110000       0.01480000
   128  H          0.55140000       0.60890000       0.51480000
   129  C          0.45842000       0.14305000       0.96242000
   130  C          0.04158000       0.35695000       0.46242000
   131  C          0.95842000       0.35695000       0.03758000
   132  C          0.54158000       0.14305000       0.53758000
   133  C          0.54158000       0.85695000       0.03758000
   134  C          0.95842000       0.64305000       0.53758000
   135  C          0.04158000       0.64305000       0.96242000
   136  C          0.45842000       0.85695000       0.46242000
   137  H          0.43000000       0.07520000       0.98200000
   138  H          0.07000000       0.42480000       0.48200000
   139  H          0.93000000       0.42480000       0.01800000
   140  H          0.57000000       0.07520000       0.51800000
   141  H          0.57000000       0.92480000       0.01800000
   142  H          0.93000000       0.57520000       0.51800000
   143  H          0.07000000       0.57520000       0.98200000
   144  H          0.43000000       0.92480000       0.48200000
   145  C          0.54382000       0.33494000       0.90622000
   146  C          0.95618000       0.16506000       0.40622000
   147  C          0.04382000       0.16506000       0.09378000
   148  C          0.45618000       0.33494000       0.59378000
   149  C          0.45618000       0.66506000       0.09378000
   150  C          0.04382000       0.83494000       0.59378000
   151  C          0.95618000       0.83494000       0.90622000
   152  C          0.54382000       0.66506000       0.40622000
   153  H          0.57480000       0.39930000       0.88730000
   154  H          0.92520000       0.10070000       0.38730000
   155  H          0.07480000       0.10070000       0.11270000
   156  H          0.42520000       0.39930000       0.61270000
   157  H          0.42520000       0.60070000       0.11270000
   158  H          0.07480000       0.89930000       0.61270000
   159  H          0.92520000       0.89930000       0.88730000
   160  H          0.57480000       0.60070000       0.38730000
   161  C          0.47092000       0.15024000       0.88672000
   162  C          0.02908000       0.34976000       0.38672000
   163  C          0.97092000       0.34976000       0.11328000
   164  C          0.52908000       0.15024000       0.61328000
   165  C          0.52908000       0.84976000       0.11328000
   166  C          0.97092000       0.65024000       0.61328000
   167  C          0.02908000       0.65024000       0.88672000
   168  C          0.47092000       0.84976000       0.38672000
   169  H          0.45060000       0.08750000       0.85450000
   170  H          0.04940000       0.41250000       0.35450000
   171  H          0.95060000       0.41250000       0.14550000
   172  H          0.54940000       0.08750000       0.64550000
   173  H          0.54940000       0.91250000       0.14550000
   174  H          0.95060000       0.58750000       0.64550000
   175  H          0.04940000       0.58750000       0.85450000
   176  H          0.45060000       0.91250000       0.35450000
   177  C          0.51267190       0.24773000       0.85692000
   178  C          0.98732810       0.25227000       0.35692000
   179  C          0.01267190       0.25227000       0.14308000
   180  C          0.48732810       0.24773000       0.64308000
   181  C          0.48732810       0.75227000       0.14308000
   182  C          0.01267190       0.74773000       0.64308000
   183  C          0.98732810       0.74773000       0.85692000
   184  C          0.51267190       0.75227000       0.35692000
   185  Cl         0.82614600       0.60760900       0.97125400
   186  Cl         0.67385400       0.89239100       0.47125400
   187  Cl         0.32614600       0.89239100       0.02874600
   188  Cl         0.17385400       0.60760900       0.52874600
   189  Cl         0.17385400       0.39239100       0.02874600
   190  Cl         0.32614600       0.10760900       0.52874600
   191  Cl         0.67385400       0.10760900       0.97125400
   192  Cl         0.82614600       0.39239100       0.47125400
   193  Cl         0.76998700       0.39139100       0.05117600
   194  Cl         0.73001300       0.10860900       0.55117600
   195  Cl         0.26998700       0.10860900       0.94882400
   196  Cl         0.23001300       0.39139100       0.44882400
   197  Cl         0.23001300       0.60860900       0.94882400
   198  Cl         0.26998700       0.89139100       0.44882400
   199  Cl         0.73001300       0.89139100       0.05117600
   200  Cl         0.76998700       0.60860900       0.55117600
   201  C          0.75672000       0.49533000       0.97488000
   202  C          0.74328000       0.00467000       0.47488000
   203  C          0.25672000       0.00467000       0.02512000
   204  C          0.24328000       0.49533000       0.52512000
   205  C          0.24328000       0.50467000       0.02512000
   206  C          0.25672000      -0.00467000       0.52512000
   207  C          0.74328000      -0.00467000       0.97488000
   208  C          0.75672000       0.50467000       0.47488000
   209  Cl         0.67667600       0.57768110       0.98632100
   210  Cl         0.82332400       0.92231890       0.48632100
   211  Cl         0.17667600       0.92231890       0.01367900
   212  Cl         0.32332400       0.57768110       0.51367900
   213  Cl         0.32332400       0.42231890       0.01367900
   214  Cl         0.17667600       0.07768110       0.51367900
   215  Cl         0.82332400       0.07768110       0.98632100
   216  Cl         0.67667600       0.42231890       0.48632100
   217  Cl         0.75450800       0.40355100       0.89230400
   218  Cl         0.74549200       0.09644900       0.39230400
   219  Cl         0.25450800       0.09644900       0.10769600
   220  Cl         0.24549200       0.40355100       0.60769600
   221  Cl         0.24549200       0.59644900       0.10769600
   222  Cl         0.25450800       0.90355100       0.60769600
   223  Cl         0.74549200       0.90355100       0.89230400
   224  Cl         0.75450800       0.59644900       0.39230400
