data_KUXBIQ
_symmetry_space_group_name_H-M    'P1'
_symmetry_Int_Tables_number       1
loop_
_symmetry_equiv_pos_site_id
_symmetry_equiv_pos_as_xyz
1 x,y,z
_cell_length_a                   6.915016
_cell_length_b                   7.471617
_cell_length_c                   17.0154
_cell_angle_alpha                81.6006
_cell_angle_beta                 86.0835
_cell_angle_gamma                88.8095
loop_
_atom_site_label
_atom_site_type_symbol
_atom_site_fract_x
_atom_site_fract_y
_atom_site_fract_z
     1  I          0.44489300       0.61818300       0.35064200
     2  I          0.55510700       0.38181700       0.64935800
     3  C          0.85415000       0.78895000       0.53292000
     4  C          0.14585000       0.21105000       0.46708000
     5  C          0.04866000       0.73125000       0.53472000
     6  C          0.95134000       0.26875000       0.46528000
     7  H          0.10090000       0.65940000       0.49650000
     8  H          0.89910000       0.34060000       0.50350000
     9  C          0.16435000       0.77765000       0.59102000
    10  C          0.83565000       0.22235000       0.40898000
    11  H          0.29570000       0.73840000       0.59220000
    12  H          0.70430000       0.26160000       0.40780000
    13  C          0.08475000       0.88295000       0.64602000
    14  C          0.91525000       0.11705000       0.35398000
    15  N          0.20815000       0.93344000       0.70642000
    16  N          0.79185000       0.06656000       0.29358000
    17  O          0.13495000       0.02655000       0.75472000
    18  O          0.86505000       0.97345000       0.24528000
    19  O          0.37614000       0.87875000       0.70672000
    20  O          0.62386000       0.12125000       0.29328000
    21  C          0.89405000       0.94235000       0.64642000
    22  C          0.10595000       0.05765000       0.35358000
    23  H          0.84370000       0.01390000       0.68500000
    24  H          0.15630000      -0.01390000       0.31500000
    25  C          0.77755000       0.89585000       0.58952000
    26  C          0.22245000       0.10415000       0.41048000
    27  H          0.64630000       0.93600000       0.58880000
    28  H          0.35370000       0.06400000       0.41120000
    29  C          0.73176000       0.74115000       0.47462000
    30  C          0.26824000       0.25885000       0.52538000
    31  C          0.62566000       0.70085000       0.42792000
    32  C          0.37434000       0.29915000       0.57208000
    33  N          0.20135000       0.50185000       0.25082000
    34  N          0.79865000       0.49815000       0.74918000
    35  C          0.01446000       0.54925000       0.25422000
    36  C         -0.01446000       0.45075000       0.74578000
    37  H          0.96750000       0.62000000       0.29370000
    38  H          0.03250000       0.38000000       0.70630000
    39  C          0.88564000       0.49925000       0.20262000
    40  C          0.11436000       0.50075000       0.79738000
    41  H          0.75300000       0.53430000       0.20710000
    42  H          0.24700000       0.46570000       0.79290000
    43  C          0.95265000       0.39785000       0.14462000
    44  C          0.04735000       0.60215000       0.85538000
    45  N          0.81335000       0.34985000       0.09312000
    46  N          0.18665000       0.65015000       0.90688000
    47  C          0.14825000       0.34715000       0.14042000
    48  C          0.85175000       0.65285000       0.85958000
    49  H          0.19890000       0.27730000       0.10120000
    50  H          0.80110000       0.72270000       0.89880000
    51  C          0.26565000       0.40116000       0.19463000
    52  C          0.73435000       0.59884000       0.80537000
    53  H          0.39830000       0.36570000       0.19230000
    54  H          0.60170000       0.63430000       0.80770000
    55  C          0.74885000       0.23275000       0.98318000
    56  C          0.25115000       0.76725000       0.01682000
    57  N          0.88685000       0.28164000       0.03474190
    58  N          0.11315000       0.71836000       0.96525810
    59  C          0.54925000       0.26885000      -0.00622000
    60  C          0.45075000       0.73115000       0.00622000
    61  H          0.50010000       0.32630000       0.03730000
    62  H          0.49990000       0.67370000       0.96270000
    63  C          0.42414000       0.21996000       0.94007000
    64  C          0.57586000       0.78004000       0.05993000
    65  H          0.28920000       0.24420000       0.94670000
    66  H          0.71080000       0.75580000       0.05330000
    67  C          0.49744000       0.13526000       0.87657000
    68  C          0.50256000       0.86474000       0.12343000
    69  H          0.41210000       0.10020000       0.84030000
    70  H          0.58790000       0.89980000       0.15970000
    71  C          0.69464000       0.10176000       0.86618000
    72  C          0.30536000       0.89824000       0.13382000
    73  H          0.74410000       0.04560000       0.82220000
    74  H          0.25590000       0.95440000       0.17780000
    75  C          0.82144000       0.14995000       0.91988000
    76  C          0.17856000       0.85005000       0.08012000
    77  H          0.95650000       0.12580000       0.91290000
    78  H          0.04350000       0.87420000       0.08710000
