data_KUXNEY
_symmetry_space_group_name_H-M    'P1'
_symmetry_Int_Tables_number       1
loop_
_symmetry_equiv_pos_site_id
_symmetry_equiv_pos_as_xyz
1 x,y,z
_cell_length_a                   9.49177
_cell_length_b                   18.451514
_cell_length_c                   16.357612
_cell_angle_alpha                90.0
_cell_angle_beta                 100.1102
_cell_angle_gamma                90.0
loop_
_atom_site_label
_atom_site_type_symbol
_atom_site_fract_x
_atom_site_fract_y
_atom_site_fract_z
     1  O          0.07114120      -0.00571600       0.12671700
     2  O          0.92885880       0.49428400       0.37328300
     3  O          0.92885880       0.00571600       0.87328300
     4  O          0.07114120       0.50571600       0.62671700
     5  N          0.88453140       0.04676700       0.17515800
     6  N          0.11546860       0.54676700       0.32484200
     7  N          0.11546860       0.95323300       0.82484200
     8  N          0.88453140       0.45323300       0.67515800
     9  C          0.82383160       0.10589800       0.20077900
    10  C          0.17616840       0.60589800       0.29922100
    11  C          0.17616840       0.89410200       0.79922100
    12  C          0.82383160       0.39410200       0.70077900
    13  N          0.87502140       0.17255700       0.19536800
    14  N          0.12497860       0.67255700       0.30463200
    15  N          0.12497860       0.82744300       0.80463200
    16  N          0.87502140       0.32744300       0.69536800
    17  O          0.05263130       0.24654600       0.16726800
    18  O          0.94736870       0.74654600       0.33273200
    19  O          0.94736870       0.75345400       0.83273200
    20  O          0.05263130       0.25345400       0.66726800
    21  C          0.68181170       0.09757800       0.23431100
    22  C          0.31818830       0.59757800       0.26568900
    23  C          0.31818830       0.90242200       0.76568900
    24  C          0.68181170       0.40242200       0.73431100
    25  O          0.57354120       0.09604600       0.18247700
    26  O          0.42645880       0.59604600       0.31752300
    27  O          0.42645880       0.90395400       0.81752300
    28  O          0.57354120       0.40395400       0.68247700
    29  C          0.01744170       0.05003900       0.14245900
    30  C          0.98255830       0.55003900       0.35754100
    31  C          0.98255830       0.94996100       0.85754100
    32  C          0.01744170       0.44996100       0.64245900
    33  C          0.06728170       0.12431900       0.12077900
    34  C          0.93271830       0.62431900       0.37922100
    35  C          0.93271830       0.87568100       0.87922100
    36  C          0.06728170       0.37568100       0.62077900
    37  C          0.00704170       0.18616900       0.16420900
    38  C         -0.00704170       0.68616900       0.33579100
    39  C         -0.00704170       0.81383100       0.83579100
    40  C          0.00704170       0.31383100       0.66420900
    41  C          0.00462000       0.13619100       0.02708100
    42  C         -0.00462000       0.63619100       0.47291900
    43  C         -0.00462000       0.86380900       0.97291900
    44  C          0.00462000       0.36380900       0.52708100
    45  H          0.90200000       0.13580000       0.01930000
    46  H          0.09800000       0.63580000       0.48070000
    47  H          0.09800000       0.86420000       0.98070000
    48  H          0.90200000       0.36420000       0.51930000
    49  H          0.03670000       0.09800000      -0.00510000
    50  H          0.96330000       0.59800000       0.50510000
    51  H          0.96330000       0.90200000       0.00510000
    52  H          0.03670000       0.40200000       0.49490000
    53  H          0.03660000       0.18200000       0.00940000
    54  H          0.96340000       0.68200000       0.49060000
    55  H          0.96340000       0.81800000       0.99060000
    56  H          0.03660000       0.31800000       0.50940000
    57  C          0.23059180       0.12918100       0.13285110
    58  C          0.76940820       0.62918100       0.36714890
    59  C          0.76940820       0.87081900       0.86714890
    60  C          0.23059180       0.37081900       0.63285110
    61  H          0.27000000       0.12490000       0.19080000
    62  H          0.73000000       0.62490000       0.30920000
    63  H          0.73000000       0.87510000       0.80920000
    64  H          0.27000000       0.37510000       0.69080000
    65  H          0.25760000       0.17500000       0.11250000
    66  H          0.74240000       0.67500000       0.38750000
    67  H          0.74240000       0.82500000       0.88750000
    68  H          0.25760000       0.32500000       0.61250000
    69  H          0.26650000       0.09070000       0.10280000
    70  H          0.73350000       0.59070000       0.39720000
    71  H          0.73350000       0.90930000       0.89720000
    72  H          0.26650000       0.40930000       0.60280000
    73  C          0.81021160       0.97628200       0.17080100
    74  C          0.18978840       0.47628200       0.32919900
    75  C          0.18978840       0.02371800       0.82919900
    76  C          0.81021160       0.52371800       0.67080100
    77  C          0.83854170       0.92664100       0.23578100
    78  C          0.16145830       0.42664100       0.26421900
    79  C          0.16145830       0.07335900       0.76421900
    80  C          0.83854170       0.57335900       0.73578100
    81  C          0.75914180       0.86232100       0.22695100
    82  C          0.24085820       0.36232100       0.27304900
    83  C          0.24085820       0.13767900       0.77304900
    84  C          0.75914180       0.63767900       0.72695100
    85  H          0.77100000       0.82980000       0.27100000
    86  H          0.22900000       0.32980000       0.22900000
    87  H          0.22900000       0.17020000       0.72900000
    88  H          0.77100000       0.67020000       0.77100000
    89  C          0.66384180       0.84502100       0.15555110
    90  C          0.33615820       0.34502100       0.34444890
    91  C          0.33615820       0.15497900       0.84444890
    92  C          0.66384180       0.65497900       0.65555110
    93  C          0.64557170       0.89462100       0.09011100
    94  C          0.35442830       0.39462100       0.40988900
    95  C          0.35442830       0.10537900       0.90988900
    96  C          0.64557170       0.60537900       0.59011100
    97  H          0.58450000       0.88300000       0.04100000
    98  H          0.41550000       0.38300000       0.45900000
    99  H          0.41550000       0.11700000       0.95900000
   100  H          0.58450000       0.61700000       0.54100000
   101  C          0.71633170       0.96101100       0.09637100
   102  C          0.28366830       0.46101100       0.40362900
   103  C          0.28366830       0.03898900       0.90362900
   104  C          0.71633170       0.53898900       0.59637100
   105  C          0.95117190       0.93610100       0.31191100
   106  C          0.04882810       0.43610100       0.18808900
   107  C          0.04882810       0.06389900       0.68808900
   108  C          0.95117190       0.56389900       0.81191100
   109  H          0.00700000       0.97850000       0.30570000
   110  H         -0.00700000       0.47850000       0.19430000
   111  H         -0.00700000       0.02150000       0.69430000
   112  H          0.00700000       0.52150000       0.80570000
   113  H          0.01240000       0.89430000       0.31890000
   114  H         -0.01240000       0.39430000       0.18110000
   115  H         -0.01240000       0.10570000       0.68110000
   116  H          0.01240000       0.60570000       0.81890000
   117  H          0.90610000       0.94150000       0.35970000
   118  H          0.09390000       0.44150000       0.14030000
   119  H          0.09390000       0.05850000       0.64030000
   120  H          0.90610000       0.55850000       0.85970000
   121  C          0.58552000       0.77353100       0.14822120
   122  C          0.41448000       0.27353100       0.35177880
   123  C          0.41448000       0.22646900       0.85177880
   124  C          0.58552000       0.72646900       0.64822120
   125  H          0.58790000       0.75340000       0.20260000
   126  H          0.41210000       0.25340000       0.29740000
   127  H          0.41210000       0.24660000       0.79740000
   128  H          0.58790000       0.74660000       0.70260000
   129  H          0.63090000       0.74070000       0.11550000
   130  H          0.36910000       0.24070000       0.38450000
   131  H          0.36910000       0.25930000       0.88450000
   132  H          0.63090000       0.75930000       0.61550000
   133  H          0.48800000       0.78100000       0.12200000
   134  H          0.51200000       0.28100000       0.37800000
   135  H          0.51200000       0.21900000       0.87800000
   136  H          0.48800000       0.71900000       0.62200000
   137  C          0.69397180       0.01328900       0.02445100
   138  C          0.30602820       0.51328900       0.47554900
   139  C          0.30602820       0.98671100       0.97554900
   140  C          0.69397180       0.48671100       0.52445100
   141  H          0.62250000      -0.00560000       0.98080000
   142  H          0.37750000       0.49440000       0.51920000
   143  H          0.37750000       0.00560000       0.01920000
   144  H          0.62250000       0.50560000       0.48080000
   145  H          0.78230000       0.01960000       0.00430000
   146  H          0.21770000       0.51960000       0.49570000
   147  H          0.21770000       0.98040000      -0.00430000
   148  H          0.78230000       0.48040000       0.50430000
   149  H          0.66280000       0.05920000       0.04250000
   150  H          0.33720000       0.55920000       0.45750000
   151  H          0.33720000       0.94080000       0.95750000
   152  H          0.66280000       0.44080000       0.54250000
   153  C          0.79711170       0.23722800       0.21591100
   154  C          0.20288830       0.73722800       0.28408900
   155  C          0.20288830       0.76277200       0.78408900
   156  C          0.79711170       0.26277200       0.71591100
   157  C          0.68720180       0.26428900       0.15492100
   158  C          0.31279820       0.76428900       0.34507900
   159  C          0.31279820       0.73571100       0.84507900
   160  C          0.68720180       0.23571100       0.65492100
   161  C          0.62075180       0.32827900       0.17258110
   162  C          0.37924820       0.82827900       0.32741890
   163  C          0.37924820       0.67172100       0.82741890
   164  C          0.62075180       0.17172100       0.67258110
   165  H          0.54470000       0.34610000       0.13410000
   166  H          0.45530000       0.84610000       0.36590000
   167  H          0.45530000       0.65390000       0.86590000
   168  H          0.54470000       0.15390000       0.63410000
   169  C          0.66478180       0.36642900       0.24614110
   170  C          0.33521820       0.86642900       0.25385890
   171  C          0.33521820       0.63357100       0.75385890
   172  C          0.66478180       0.13357100       0.74614110
   173  C          0.77623180       0.33820900       0.30336100
   174  C          0.22376820       0.83820900       0.19663900
   175  C          0.22376820       0.66179100       0.69663900
   176  C          0.77623180       0.16179100       0.80336100
   177  H          0.80600000       0.36320000       0.35270000
   178  H          0.19400000       0.86320000       0.14730000
   179  H          0.19400000       0.63680000       0.64730000
   180  H          0.80600000       0.13680000       0.85270000
   181  C          0.84565170       0.27381900       0.29000100
   182  C          0.15434830       0.77381900       0.20999900
   183  C          0.15434830       0.72618100       0.70999900
   184  C          0.84565170       0.22618100       0.79000100
   185  C          0.64372000       0.22976100       0.07069110
   186  C          0.35628000       0.72976100       0.42930890
   187  C          0.35628000       0.77023900       0.92930890
   188  C          0.64372000       0.27023900       0.57069110
   189  H          0.56550000       0.25640000       0.03940000
   190  H          0.43450000       0.75640000       0.46060000
   191  H          0.43450000       0.74360000       0.96060000
   192  H          0.56550000       0.24360000       0.53940000
   193  H          0.61460000       0.18060000       0.07740000
   194  H          0.38540000       0.68060000       0.42260000
   195  H          0.38540000       0.81940000       0.92260000
   196  H          0.61460000       0.31940000       0.57740000
   197  H          0.72340000       0.23030000       0.04170000
   198  H          0.27660000       0.73030000       0.45830000
   199  H          0.27660000       0.76970000       0.95830000
   200  H          0.72340000       0.26970000       0.54170000
   201  C          0.59862000       0.43864900       0.26052120
   202  C          0.40138000       0.93864900       0.23947880
   203  C          0.40138000       0.56135100       0.73947880
   204  C          0.59862000       0.06135100       0.76052120
   205  H          0.59950000       0.44510000       0.31880000
   206  H          0.40050000       0.94510000       0.18120000
   207  H          0.40050000       0.55490000       0.68120000
   208  H          0.59950000       0.05490000       0.81880000
   209  H          0.50170000       0.44000000       0.23120000
   210  H          0.49830000       0.94000000       0.26880000
   211  H          0.49830000       0.56000000       0.76880000
   212  H          0.50170000       0.06000000       0.73120000
   213  H          0.65250000       0.47680000       0.24060000
   214  H          0.34750000       0.97680000       0.25940000
   215  H          0.34750000       0.52320000       0.75940000
   216  H          0.65250000       0.02320000       0.74060000
   217  C          0.97072180       0.24886900       0.35313100
   218  C          0.02927820       0.74886900       0.14686900
   219  C          0.02927820       0.75113100       0.64686900
   220  C          0.97072180       0.25113100       0.85313100
   221  H          0.01970000       0.21060000       0.33000000
   222  H          0.98030000       0.71060000       0.17000000
   223  H          0.98030000       0.78940000       0.67000000
   224  H          0.01970000       0.28940000       0.83000000
   225  H          0.93710000       0.23140000       0.40160000
   226  H          0.06290000       0.73140000       0.09840000
   227  H          0.06290000       0.76860000       0.59840000
   228  H          0.93710000       0.26860000       0.90160000
   229  H          0.03520000       0.28870000       0.36820000
   230  H          0.96480000       0.78870000       0.13180000
   231  H          0.96480000       0.71130000       0.63180000
   232  H          0.03520000       0.21130000       0.86820000
   233  C          0.69152170       0.09183800       0.32444100
   234  C          0.30847830       0.59183800       0.17555900
   235  C          0.30847830       0.90816200       0.67555900
   236  C          0.69152170       0.40816200       0.82444100
   237  C          0.56487180       0.08807900       0.35749110
   238  C          0.43512820       0.58807900       0.14250890
   239  C          0.43512820       0.91192100       0.64250890
   240  C          0.56487180       0.41192100       0.85749110
   241  H          0.47640000       0.09220000       0.32280000
   242  H          0.52360000       0.59220000       0.17720000
   243  H          0.52360000       0.90780000       0.67720000
   244  H          0.47640000       0.40780000       0.82280000
   245  C          0.57262000       0.07825100       0.44175120
   246  C          0.42738000       0.57825100       0.05824880
   247  C          0.42738000       0.92174900       0.55824880
   248  C          0.57262000       0.42174900       0.94175120
   249  H          0.48900000       0.07590000       0.46400000
   250  H          0.51100000       0.57590000       0.03600000
   251  H          0.51100000       0.92410000       0.53600000
   252  H          0.48900000       0.42410000       0.96400000
   253  C          0.70512000       0.07181110       0.49361110
   254  C          0.29488000       0.57181110       0.00638890
   255  C          0.29488000       0.92818890       0.50638890
   256  C          0.70512000       0.42818890      -0.00638890
   257  H          0.70940000       0.06380000       0.55010000
   258  H          0.29060000       0.56380000       0.94990000
   259  H          0.29060000       0.93620000       0.44990000
   260  H          0.70940000       0.43620000       0.05010000
   261  C          0.83052000       0.07725100       0.46159110
   262  C          0.16948000       0.57725100       0.03840890
   263  C          0.16948000       0.92274900       0.53840890
   264  C          0.83052000       0.42274900       0.96159110
   265  H          0.91870000       0.07410000       0.49670000
   266  H          0.08130000       0.57410000       0.00330000
   267  H          0.08130000       0.92590000       0.50330000
   268  H          0.91870000       0.42590000      -0.00330000
   269  C          0.82415180       0.08739900       0.37702100
   270  C          0.17584820       0.58739900       0.12297900
   271  C          0.17584820       0.91260100       0.62297900
   272  C          0.82415180       0.41260100       0.87702100
   273  H          0.90810000       0.09120000       0.35530000
   274  H          0.09190000       0.59120000       0.14470000
   275  H          0.09190000       0.90880000       0.64470000
   276  H          0.90810000       0.40880000       0.85530000
   277  Cl         0.23033600       0.16042300       0.51618300
   278  Cl         0.76966400       0.66042300       0.98381700
   279  Cl         0.76966400       0.83957700       0.48381700
   280  Cl         0.23033600       0.33957700       0.01618300
   281  H          0.21030000       0.13331500       0.44201600
   282  H          0.78970000       0.63331500       0.05798400
   283  H          0.78970000       0.86668500       0.55798400
   284  H          0.21030000       0.36668500       0.94201600
   285  Cl         0.17994400       0.09215200       0.32874300
   286  Cl         0.82005600       0.59215200       0.17125700
   287  Cl         0.82005600       0.90784800       0.67125700
   288  Cl         0.17994400       0.40784800       0.82874300
