data_KUYKAS
_symmetry_space_group_name_H-M    'P1'
_symmetry_Int_Tables_number       1
loop_
_symmetry_equiv_pos_site_id
_symmetry_equiv_pos_as_xyz
1 x,y,z
_cell_length_a                   8.705201
_cell_length_b                   12.20352
_cell_length_c                   16.07774
_cell_angle_alpha                75.27887
_cell_angle_beta                 88.33957
_cell_angle_gamma                83.254112
loop_
_atom_site_label
_atom_site_type_symbol
_atom_site_fract_x
_atom_site_fract_y
_atom_site_fract_z
     1  I          0.45706117       0.68894013       0.36740010
     2  I          0.54293883       0.31105987       0.63259990
     3  Br         0.90182400       0.01489400       0.10942200
     4  Br         0.09817600       0.98510600       0.89057800
     5  O          0.43932000       0.68026170       0.53985130
     6  O          0.56068000       0.31973830       0.46014870
     7  C          0.50465000       0.80483000       0.05702000
     8  C          0.49535000       0.19517000       0.94298000
     9  N          0.68452000       0.90833180       0.47668150
    10  N          0.31548000       0.09166820       0.52331850
    11  O          0.50952000       0.79260170       0.61945130
    12  O          0.49048000       0.20739830       0.38054870
    13  C          0.27464000       0.90813000       0.23273000
    14  C          0.72536000       0.09187000       0.76727000
    15  C          0.58893000       0.82612000       0.47541180
    16  C          0.41107000       0.17388000       0.52458820
    17  C          0.85053000       0.02472000       0.36502000
    18  C          0.14947000       0.97528000       0.63498000
    19  C          0.74493000       0.94472000       0.39562190
    20  C          0.25507000       0.05528000       0.60437810
    21  C          0.58613000       0.81122000       0.39299180
    22  C          0.41387000       0.18878000       0.60700820
    23  C          0.48303000       0.74082000       0.23318180
    24  C          0.51697000       0.25918000       0.76681820
    25  C          0.68493000       0.88592000       0.34014180
    26  C          0.31507000       0.11408000       0.65985820
    27  C          0.73323000       0.90662000       0.25357190
    28  C          0.26677000       0.09338000       0.74642810
    29  C          0.50623000       0.75962000       0.54753170
    30  C          0.49377000       0.24038000       0.45246830
    31  C          0.89653000       0.04393000       0.28072000
    32  C          0.10347000       0.95607000       0.71928000
    33  C          0.72893000       0.94612000       0.55152000
    34  C          0.27107000       0.05388000       0.44848000
    35  C          0.83753000       0.98463000       0.22612000
    36  C          0.16247000       0.01537000       0.77388000
    37  C          0.43554000       0.72313000       0.69398190
    38  C          0.56446000       0.27687000       0.30601810
    39  C          0.59603000       0.67933000       0.19422000
    40  C          0.40397000       0.32067000       0.80578000
    41  C          0.60245000       0.71433000       0.10472000
    42  C          0.39755000       0.28567000       0.89528000
    43  C          0.47325000       0.76583000       0.76962000
    44  C          0.52675000       0.23417000       0.23038000
    45  C          0.38503000       0.83543000       0.18882000
    46  C          0.61497000       0.16457000       0.81118000
    47  C          0.50868000       0.83435000       0.95987000
    48  C          0.49132000       0.16565000       0.04013000
    49  C          0.70894000       0.58343000       0.24413000
    50  C          0.29106000       0.41657000       0.75587000
    51  C          0.39844000       0.86473000       0.09992000
    52  C          0.60156000       0.13527000       0.90008000
    53  H          0.69420000       0.87086300       0.21396800
    54  H          0.30580000       0.12913700       0.78603200
    55  H          0.77045000       0.60506300       0.28769400
    56  H          0.22955000       0.39493700       0.71230600
    57  H          0.65265000       0.52174100       0.27560600
    58  H          0.34735000       0.47825900       0.72439400
    59  H          0.77994900       0.55554100       0.20490600
    60  H          0.22005100       0.44445900       0.79509400
    61  H          0.47334100       0.64183200       0.70074000
    62  H          0.52665900       0.35816800       0.29926000
    63  H          0.32369400       0.72969000       0.68312700
    64  H          0.67630600       0.27031000       0.31687300
    65  H          0.34071500       0.94009300       0.27021900
    66  H          0.65928500       0.05990700       0.72978100
    67  H          0.75348200       0.87787600       0.60010200
    68  H          0.24651800       0.12212400       0.39989800
    69  H          0.21781500       0.96919300       0.19001900
    70  H          0.78218500       0.03080700       0.80998100
    71  H          0.20291500       0.86229300       0.26961900
    72  H          0.79708500       0.13770700       0.73038100
    73  H          0.81898300       0.98747600       0.53810200
    74  H          0.18101700       0.01252400       0.46189800
    75  H          0.64318200      -0.00492400       0.56660200
    76  H          0.35681800       0.00492400       0.43339800
    77  H          0.96773400       0.09861800       0.25248400
    78  H          0.03226600       0.90138200       0.74751600
    79  H          0.33006900       0.92942800       0.06451200
    80  H          0.66993100       0.07057200       0.93548800
    81  H          0.41656600       0.72785700       0.81938500
    82  H          0.58343400       0.27214300       0.18061500
    83  H          0.44286600       0.84655700       0.75758500
    84  H          0.55713400       0.15344300       0.24241500
    85  H          0.58866600       0.75065700       0.78428500
    86  H          0.41133400       0.24934300       0.21571500
    87  H          0.88892800       0.06410700       0.40321500
    88  H          0.11107200       0.93589300       0.59678500
    89  H          0.47840300       0.76940900       0.93736400
    90  H          0.52159700       0.23059100       0.06263600
    91  H          0.43520300       0.90120900       0.93746400
    92  H          0.56479700       0.09879100       0.06253600
    93  H          0.61300300       0.84870900       0.94086400
    94  H          0.38699700       0.15129100       0.05913600
    95  H          0.67831400       0.67311400       0.07617600
    96  H          0.32168600       0.32688600       0.92382400
    97  O          0.69262000       0.45176170       0.68420130
    98  O          0.30738000       0.54823830       0.31579870
    99  C          0.77703000       0.52982000       0.54148180
   100  C          0.22297000       0.47018000       0.45851820
   101  C          0.77723000       0.52012000       0.63131180
   102  C          0.22277000       0.47988000       0.36868820
   103  C          0.95773000       0.66422000       0.60622000
   104  C          0.04227000       0.33578000       0.39378000
   105  C          0.95393000       0.67102000       0.51902000
   106  C          0.04607000       0.32898000       0.48098000
   107  N          0.04283000       0.74912000       0.45952000
   108  N          0.95717000       0.25088000       0.54048000
   109  C          0.86483000       0.60352000       0.48638190
   110  C          0.13517000       0.39648000       0.51361810
   111  O          0.04713000       0.74742000       0.38316180
   112  O          0.95287000       0.25258000       0.61683820
   113  C          0.87024000       0.59033000       0.66162000
   114  C          0.12976000       0.40967000       0.33838000
   115  O          0.11323000       0.81402000       0.48822000
   116  O          0.88677000       0.18598000       0.51178000
   117  H          0.72642500       0.47690100       0.51866700
   118  H          0.27357500       0.52309900       0.48133300
   119  H          0.87964900       0.60324700       0.42523000
   120  H          0.12035100       0.39675300       0.57477000
   121  H          0.87204200       0.58635200       0.72191300
   122  H          0.12795800       0.41364800       0.27808700
   123  H          0.03261200       0.70484400       0.62641900
   124  H          0.96738800       0.29515600       0.37358100
   125  C          0.85644000       0.36643000       0.88962000
   126  C          0.14356000       0.63357000       0.11038000
   127  C          0.91665000       0.35233000       0.03652000
   128  C          0.08335000       0.64767000       0.96348000
   129  O          0.63943000       0.49943190       0.82761150
   130  O          0.36057000       0.50056810       0.17238850
   131  C          0.94884000       0.31573000       0.96143000
   132  C          0.05116000       0.68427000       0.03857000
   133  O          0.96746000       0.32284000       0.18122000
   134  O          0.03254000       0.67716000       0.81878000
   135  C          0.73274000       0.44962000       0.89382000
   136  C          0.26726000       0.55038000       0.10618000
   137  N          0.01076000       0.30064000       0.11253000
   138  N         -0.01076000       0.69936000       0.88747000
   139  C          0.79926000       0.43393000       0.04152000
   140  C          0.20074000       0.56607000       0.95848000
   141  C          0.70745000       0.48433000       0.96932000
   142  C          0.29255000       0.51567000       0.03068000
   143  O          0.12615000       0.23604000       0.10553000
   144  O          0.87385000       0.76396000       0.89447000
   145  H          0.88387600       0.34955800       0.83386600
   146  H          0.11612400       0.65044200       0.16613400
   147  H          0.02937300       0.25374400       0.95812900
   148  H          0.97062700       0.74625600       0.04187100
   149  H          0.77981600       0.47287500       0.08979700
   150  H          0.22018400       0.52712500       0.91020300
   151  H          0.62001500       0.54766900       0.97399400
   152  H          0.37998500       0.45233100       0.02600600
   153  H          0.67061800       0.47276500       0.76878200
   154  H          0.32938200       0.52723500       0.23121800
