data_KUYRAX
_symmetry_space_group_name_H-M    'P1'
_symmetry_Int_Tables_number       1
loop_
_symmetry_equiv_pos_site_id
_symmetry_equiv_pos_as_xyz
1 x,y,z
_cell_length_a                   5.3851
_cell_length_b                   8.1992
_cell_length_c                   18.4023
_cell_angle_alpha                90.0
_cell_angle_beta                 90.0
_cell_angle_gamma                90.0
loop_
_atom_site_label
_atom_site_type_symbol
_atom_site_fract_x
_atom_site_fract_y
_atom_site_fract_z
     1  Br         0.33124400       0.92684600       0.53487200
     2  Br         0.83124400       0.57315400       0.46512800
     3  Br         0.66875600       0.42684600       0.96512800
     4  Br         0.16875600       0.07315400       0.03487200
     5  O          0.30345000       0.34133000       0.21291000
     6  O          0.80345000       0.15867000       0.78709000
     7  O          0.69655000       0.84133000       0.28709000
     8  O          0.19655000       0.65867000       0.71291000
     9  O          0.61044000       0.28213000       0.29051000
    10  O          0.11044000       0.21787000       0.70949000
    11  O          0.38956000       0.78213000       0.20949000
    12  O          0.88956000       0.71787000       0.79051000
    13  C          0.63997000       0.18354000       0.16942000
    14  C          0.13997000       0.31646000       0.83058000
    15  C          0.36003000       0.68354000       0.33058000
    16  C          0.86003000       0.81646000       0.66942000
    17  C          0.50966000       0.27744000       0.22902000
    18  C          0.00966000       0.22256000       0.77098000
    19  C          0.49034000       0.77744000       0.27098000
    20  C         -0.00966000       0.72256000       0.72902000
    21  N          0.87215000       0.10603000       0.19481000
    22  N          0.37215000       0.39397000       0.80519000
    23  N          0.12785000       0.60603000       0.30519000
    24  N          0.62785000       0.89397000       0.69481000
    25  H          0.52100000       0.09760000       0.15720000
    26  H          0.02100000       0.40240000       0.84280000
    27  H          0.47900000       0.59760000       0.34280000
    28  H         -0.02100000       0.90240000       0.65720000
    29  H          0.67100000       0.25760000       0.13020000
    30  H          0.17100000       0.24240000       0.86980000
    31  H          0.32900000       0.75760000       0.36980000
    32  H          0.82900000       0.74240000       0.63020000
    33  H          0.97100000       0.06160000       0.15820000
    34  H          0.47100000       0.43840000       0.84180000
    35  H          0.02900000       0.56160000       0.34180000
    36  H          0.52900000       0.93840000       0.65820000
    37  H          0.96100000       0.18260000       0.21320000
    38  H          0.46100000       0.31740000       0.78680000
    39  H          0.03900000       0.68260000       0.28680000
    40  H          0.53900000       0.81740000       0.71320000
    41  H          0.85100000       0.01760000       0.22520000
    42  H          0.35100000       0.48240000       0.77480000
    43  H          0.14900000       0.51760000       0.27480000
    44  H          0.64900000       0.98240000       0.72520000
    45  O          0.17156000       0.04423000       0.33351000
    46  O          0.67156000       0.45577000       0.66649000
    47  O          0.82844000       0.54423000       0.16649000
    48  O          0.32844000       0.95577000       0.83351000
    49  O          0.26825000       0.28083000       0.38741000
    50  O          0.76825000       0.21917000       0.61259000
    51  O          0.73175000       0.78083000       0.11259000
    52  O          0.23175000       0.71917000       0.88741000
    53  C          0.91394000       0.14094000       0.42962000
    54  C          0.41394000       0.35906000       0.57038000
    55  C          0.08606000       0.64094000       0.07038000
    56  C          0.58606000       0.85906000       0.92962000
    57  C          0.13317000       0.14874000       0.37892000
    58  C          0.63317000       0.35126000       0.62108000
    59  C          0.86683000       0.64874000       0.12108000
    60  C          0.36683000       0.85126000       0.87892000
    61  N          0.81394000       0.97257000       0.42951000
    62  N          0.31394000       0.52743000       0.57049000
    63  N          0.18606000       0.47257000       0.07049000
    64  N          0.68606000       0.02743000       0.92951000
    65  H         -0.02100000       0.17160000       0.47920000
    66  H          0.47900000       0.32840000       0.52080000
    67  H          0.02100000       0.67160000       0.02080000
    68  H          0.52100000       0.82840000       0.97920000
    69  H          0.79900000       0.21760000       0.40920000
    70  H          0.29900000       0.28240000       0.59080000
    71  H          0.20100000       0.71760000       0.09080000
    72  H          0.70100000       0.78240000       0.90920000
    73  H          0.67900000       0.96140000       0.46330000
    74  H          0.17900000       0.53860000       0.53670000
    75  H          0.32100000       0.46140000       0.03670000
    76  H          0.82100000       0.03860000       0.96330000
    77  H          0.76900000       0.94640000       0.38620000
    78  H          0.26900000       0.55360000       0.61380000
    79  H          0.23100000       0.44640000       0.11380000
    80  H          0.73100000       0.05360000       0.88620000
    81  H          0.90900000       0.89440000       0.45130000
    82  H          0.40900000       0.60560000       0.54870000
    83  H          0.09100000       0.39440000       0.04870000
    84  H          0.59100000       0.10560000       0.95130000
    85  H          0.38100000       0.29260000       0.35530000
    86  H          0.88100000       0.20740000       0.64470000
    87  H          0.61900000       0.79260000       0.14470000
    88  H          0.11900000       0.70740000       0.85530000
