data_KUYYIO
_symmetry_space_group_name_H-M    'P1'
_symmetry_Int_Tables_number       1
loop_
_symmetry_equiv_pos_site_id
_symmetry_equiv_pos_as_xyz
1 x,y,z
_cell_length_a                   9.82227
_cell_length_b                   13.88911
_cell_length_c                   16.228412
_cell_angle_alpha                92.3392
_cell_angle_beta                 94.2112
_cell_angle_gamma                109.1702
loop_
_atom_site_label
_atom_site_type_symbol
_atom_site_fract_x
_atom_site_fract_y
_atom_site_fract_z
     1  S          0.03377400       0.57241300       0.17964200
     2  S          0.96622600       0.42758700       0.82035800
     3  F          0.24780140       0.62972100       0.29694800
     4  F          0.75219860       0.37027900       0.70305200
     5  O          0.94759140       0.50245900       0.23408800
     6  O          0.05240860       0.49754100       0.76591200
     7  F          0.31341130       0.65385110       0.17390900
     8  F          0.68658870       0.34614890       0.82609100
     9  F          0.24557150       0.50216100       0.21638100
    10  F          0.75442850       0.49783900       0.78361900
    11  O          0.02594140       0.67444900       0.18640900
    12  O          0.97405860       0.32555100       0.81359100
    13  O          0.02584140       0.53035100       0.09614800
    14  O          0.97415860       0.46964900       0.90385200
    15  C          0.21962000       0.59094140       0.21900130
    16  C          0.78038000       0.40905860       0.78099870
    17  S          0.38653400       0.17743300       0.98030300
    18  S          0.61346600       0.82256700       0.01969700
    19  O          0.42993130       0.10371900       0.93322800
    20  O          0.57006870       0.89628100       0.06677200
    21  O          0.43076160       0.27903100       0.95203900
    22  O          0.56923840       0.72096900       0.04796100
    23  O          0.40502170       0.17269110       0.06849800
    24  O          0.59497830       0.82730890       0.93150200
    25  F          0.15628150       0.14022140       0.87549900
    26  F          0.84371850       0.85977860       0.12450100
    27  F          0.12767160       0.18617130      -0.00100890
    28  F          0.87232840       0.81382870       0.00100890
    29  F          0.13328150       0.03526120       0.97218120
    30  F          0.86671850       0.96473880       0.02781880
    31  C          0.19072000       0.13258170       0.95533140
    32  C          0.80928000       0.86741830       0.04466860
    33  N          0.24434150       0.80083100       0.87240800
    34  N          0.75565850       0.19916900       0.12759200
    35  N          0.63177140       0.54341100       0.22937800
    36  N          0.36822860       0.45658900       0.77062200
    37  N          0.64819150       0.50332110       0.10115900
    38  N          0.35180850       0.49667890       0.89884100
    39  N          0.22207150       0.81819110       0.00316900
    40  N          0.77792850       0.18180890      -0.00316900
    41  C          0.27801160       0.74315120       0.73438100
    42  C          0.72198840       0.25684880       0.26561900
    43  H          0.24120000       0.67450000       0.74910000
    44  H          0.75880000       0.32550000       0.25090000
    45  C          0.55907160       0.63659110       0.43285100
    46  C          0.44092840       0.36340890       0.56714900
    47  C          0.28391180       0.86617130       0.93947100
    48  C          0.71608820       0.13382870       0.06052900
    49  C          0.79052170       0.66977120       0.33323100
    50  C          0.20947830       0.33022880       0.66676900
    51  H          0.86730000       0.68020000       0.29860000
    52  H          0.13270000       0.31980000       0.70140000
    53  C          0.55373180       0.44000120       0.21412110
    54  C          0.44626820       0.55999880       0.78587890
    55  H          0.50240000       0.39520000       0.25260000
    56  H          0.49760000       0.60480000       0.74740000
    57  C          0.53867170       0.58333120       0.35591100
    58  C          0.46132830       0.41666880       0.64408900
    59  H          0.44660000       0.53580000       0.33650000
    60  H          0.55340000       0.46420000       0.66350000
    61  C          0.37444170       0.86676120       0.63530100
    62  C          0.62555830       0.13323880       0.36469900
    63  H          0.40490000       0.88130000       0.58160000
    64  H          0.59510000       0.11870000       0.41840000
    65  C          0.20384180       0.51542120       0.52499100
    66  C          0.79615820       0.48457880       0.47500900
    67  H          0.12390000       0.45360000       0.51760000
    68  H          0.87610000       0.54640000       0.48240000
    69  C          0.69715170       0.70562110       0.45932100
    70  C          0.30284830       0.29437890       0.54067900
    71  H          0.71220000       0.74100000       0.51230000
    72  H          0.28780000       0.25900000       0.48770000
    73  C          0.32352160       0.76515120       0.65564100
    74  C          0.67647840       0.23484880       0.34435900
    75  C          0.33786170       0.92504120       0.77023100
    76  C          0.66213830       0.07495880       0.22976900
    77  H          0.34200000       0.97850000       0.80980000
    78  H          0.65800000       0.02150000       0.19020000
    79  C          0.43609160       0.62036110       0.48514100
    80  C          0.56390840       0.37963890       0.51485900
    81  C          0.38192160       0.94774110       0.69153100
    82  C          0.61807840       0.05225890       0.30846900
    83  C          0.81318170       0.72410120       0.41050100
    84  C          0.18681830       0.27589880       0.58949900
    85  C          0.68681180       0.57939130       0.15978100
    86  C          0.31318820       0.42060870       0.84021900
    87  C          0.20547170       0.58973120       0.58521100
    88  C          0.79452830       0.41026880       0.41478900
    89  H          0.12830000       0.57820000       0.61970000
    90  H          0.87170000       0.42180000       0.38030000
    91  C          0.28758170       0.82341120       0.79058900
    92  C          0.71241830       0.17658880       0.20941100
    93  C          0.65463170       0.60063120       0.30798100
    94  C          0.34536830       0.39936880       0.69201900
    95  C          0.44401180       0.05824120       0.66739100
    96  C          0.55598820       0.94175880       0.33260900
    97  C          0.32135170       0.68172120       0.59482100
    98  C          0.67864830       0.31827880       0.40517900
    99  C          0.43533170       0.69519120       0.54479100
   100  C          0.56466830       0.30480880       0.45520900
   101  H          0.51470000       0.75730000       0.55170000
   102  H          0.48530000       0.24270000       0.44830000
   103  C          0.15531180       0.70713120       0.89507110
   104  C          0.84468820       0.29286880       0.10492890
   105  H          0.11210000       0.64680000       0.85980000
   106  H          0.88790000       0.35320000       0.14020000
   107  C          0.31694170       0.52994120       0.47544100
   108  C          0.68305830       0.47005880       0.52455900
   109  H          0.31370000       0.47810000       0.43450000
   110  H          0.68630000       0.52190000       0.56550000
   111  C          0.14205190       0.71822130       0.97662110
   112  C          0.85794810       0.28177870       0.02337890
   113  H          0.08790000       0.66700000       0.00970000
   114  H          0.91210000       0.33300000       0.99030000
   115  C          0.96452170       0.79980120       0.43858110
   116  C          0.03547830       0.20019880       0.56141890
   117  C          0.56496190       0.41561130       0.13416110
   118  C          0.43503810       0.58438870       0.86583890
   119  H          0.52320000       0.35000000       0.10580000
   120  H          0.47680000       0.65000000       0.89420000
   121  C          0.40412000       0.13368130       0.72425110
   122  C          0.59588000       0.86631870       0.27574890
   123  H          0.29880000       0.11130000       0.72580000
   124  H          0.70120000       0.88870000       0.27420000
   125  H          0.43770000       0.20180000       0.70310000
   126  H          0.56230000       0.79820000       0.29690000
   127  H          0.45030000       0.13610000       0.78030000
   128  H          0.54970000       0.86390000       0.21970000
   129  C          0.69182000       0.51117150       0.01566110
   130  C          0.30818000       0.48882850       0.98433890
   131  H          0.69000000       0.57620000      -0.00470000
   132  H          0.31000000       0.42380000       0.00470000
   133  H          0.62440000       0.45460000       0.97970000
   134  H          0.37560000       0.54540000       0.02030000
   135  H          0.78990000       0.50790000       0.01530000
   136  H          0.21010000       0.49210000       0.98470000
   137  C          0.00442000       0.88319140       0.37617130
   138  C         -0.00442000       0.11680860       0.62382870
   139  H          0.00750000       0.85190000       0.32140000
   140  H         -0.00750000       0.14810000       0.67860000
   141  H          0.09940000       0.93340000       0.39440000
   142  H          0.90060000       0.06660000       0.60560000
   143  H          0.93140000       0.91730000       0.37300000
   144  H          0.06860000       0.08270000       0.62700000
   145  C          0.24042000       0.86428150       0.08791110
   146  C          0.75958000       0.13571850       0.91208890
   147  H          0.30500000       0.83840000       0.12250000
   148  H          0.69500000       0.16160000       0.87750000
   149  H          0.14600000       0.84650000       0.11040000
   150  H          0.85400000       0.15350000       0.88960000
   151  H          0.28250000       0.93870000       0.08750000
   152  H          0.71750000       0.06130000       0.91250000
   153  C          0.38732000       0.06814140       0.57834110
   154  C          0.61268000       0.93185860       0.42165890
   155  H          0.41430000       0.02240000       0.54010000
   156  H          0.58570000       0.97760000       0.45990000
   157  H          0.42990000       0.13880000       0.56360000
   158  H          0.57010000       0.86120000       0.43640000
   159  H          0.28170000       0.04950000       0.57460000
   160  H          0.71830000       0.95050000       0.42540000
   161  C          0.07687190       0.74511140       0.43965130
   162  C          0.92312810       0.25488860       0.56034870
   163  H          0.05570000       0.69360000       0.48070000
   164  H          0.94430000       0.30640000       0.51930000
   165  H          0.17370000       0.79500000       0.45420000
   166  H          0.82630000       0.20500000       0.54580000
   167  H          0.07310000       0.71170000       0.38470000
   168  H          0.92690000       0.28830000       0.61530000
   169  C          0.60892000       0.08657150       0.67227140
   170  C          0.39108000       0.91342850       0.32772860
   171  H          0.64580000       0.07960000       0.72870000
   172  H          0.35420000       0.92040000       0.27130000
   173  H          0.65190000       0.15740000       0.65780000
   174  H          0.34810000       0.84260000       0.34220000
   175  H          0.63460000       0.04090000       0.63340000
   176  H          0.36540000       0.95910000       0.36660000
   177  C          0.97012000       0.85087170       0.52449130
   178  C          0.02988000       0.14912830       0.47550870
   179  H          0.89980000       0.88720000       0.52380000
   180  H          0.10020000       0.11280000       0.47620000
   181  H          0.06760000       0.89950000       0.53980000
   182  H          0.93240000       0.10050000       0.46020000
   183  H          0.94660000       0.79870000       0.56490000
   184  H          0.05340000       0.20130000       0.43510000
   185  H          0.74320000       0.64841600       0.15381200
   186  H          0.25680000       0.35158400       0.84618800
   187  H          0.34020000       0.93291700       0.94181200
   188  H          0.65980000       0.06708300       0.05818800
   189  O          0.27026180       0.25696130       0.29254120
   190  O          0.72973820       0.74303870       0.70745880
   191  C          0.17092000       0.09252170       0.22155130
   192  C          0.82908000       0.90747830       0.77844870
   193  H          0.13310000       0.02200000       0.23940000
   194  H          0.86690000       0.97800000       0.76060000
   195  H          0.20500000       0.09040000       0.16580000
   196  H          0.79500000       0.90960000       0.83420000
   197  C          0.29023000       0.15979190       0.28297160
   198  C          0.70977000       0.84020810       0.71702840
   199  H          0.28640000       0.12850000       0.33690000
   200  H          0.71360000       0.87150000       0.66310000
   201  H          0.38570000       0.16810000       0.26260000
   202  H          0.61430000       0.83190000       0.73740000
   203  C          0.05752000       0.14422000       0.22214170
   204  C          0.94248000       0.85578000       0.77785830
   205  H         -0.00170000       0.13180000       0.16820000
   206  H          0.00170000       0.86820000       0.83180000
   207  H         -0.00690000       0.12060000       0.26670000
   208  H          0.00690000       0.87940000       0.73330000
   209  C          0.14833000       0.25522000       0.23818190
   210  C          0.85167000       0.74478000       0.76181810
   211  H          0.17990000       0.28550000       0.18580000
   212  H          0.82010000       0.71450000       0.81420000
   213  H          0.09270000       0.29410000       0.26430000
   214  H          0.90730000       0.70590000       0.73570000
