data_KUZNIE
_symmetry_space_group_name_H-M    'P1'
_symmetry_Int_Tables_number       1
loop_
_symmetry_equiv_pos_site_id
_symmetry_equiv_pos_as_xyz
1 x,y,z
_cell_length_a                   6.0034
_cell_length_b                   11.3084
_cell_length_c                   22.1068
_cell_angle_alpha                90.0
_cell_angle_beta                 90.5168
_cell_angle_gamma                90.0
loop_
_atom_site_label
_atom_site_type_symbol
_atom_site_fract_x
_atom_site_fract_y
_atom_site_fract_z
     1  O          0.33242000      -0.00587100       0.05823600
     2  O          0.16758000       0.49412900       0.44176400
     3  O          0.66758000       0.00587100       0.94176400
     4  O          0.83242000       0.50587100       0.55823600
     5  O          0.76498000       0.00295100       0.15914600
     6  O          0.73502000       0.50295100       0.34085400
     7  O          0.23502000      -0.00295100       0.84085400
     8  O          0.26498000       0.49704900       0.65914600
     9  O          0.07773000       0.65913890       0.94856400
    10  O          0.42227000       0.15913890       0.55143600
    11  O          0.92227000       0.34086110       0.05143600
    12  O          0.57773000       0.84086110       0.44856400
    13  H          0.20530000       0.66170000       0.93570000
    14  H          0.29470000       0.16170000       0.56430000
    15  H          0.79470000       0.33830000       0.06430000
    16  H          0.70530000       0.83830000       0.43570000
    17  C          0.30553000       0.07194140       0.10415800
    18  C          0.19447000       0.57194140       0.39584200
    19  C          0.69447000       0.92805860       0.89584200
    20  C          0.80553000       0.42805860       0.60415800
    21  H          0.41990000       0.12590000       0.11100000
    22  H          0.08010000       0.62590000       0.38900000
    23  H          0.58010000       0.87410000       0.88900000
    24  H          0.91990000       0.37410000       0.61100000
    25  C          0.12823000       0.07812140       0.14063800
    26  C          0.37177000       0.57812140       0.35936200
    27  C          0.87177000       0.92187860       0.85936200
    28  C          0.62823000       0.42187860       0.64063800
    29  C          0.93787000      -0.00036140       0.12941800
    30  C          0.56213000       0.49963860       0.37058200
    31  C          0.06213000       0.00036140       0.87058200
    32  C          0.43787000       0.50036140       0.62941800
    33  C          0.81097000       0.82719840       0.06622900
    34  C          0.68903000       0.32719840       0.43377100
    35  C          0.18903000       0.17280160       0.93377100
    36  C          0.31097000       0.67280160       0.56622900
    37  H          0.67710000       0.82600000       0.08700000
    38  H          0.82290000       0.32600000       0.41300000
    39  H          0.32290000       0.17400000       0.91300000
    40  H          0.17710000       0.67400000       0.58700000
    41  C          0.84767000       0.74521850       0.02184900
    42  C          0.65233000       0.24521850       0.47815100
    43  C          0.15233000       0.25478150       0.97815100
    44  C          0.34767000       0.75478150       0.52184900
    45  H          0.73840000       0.68970000       0.01250000
    46  H          0.76160000       0.18970000       0.48750000
    47  H          0.26160000       0.31030000       0.98750000
    48  H          0.23840000       0.81030000       0.51250000
    49  C          0.05003000       0.74471850       0.99041100
    50  C          0.44997000       0.24471850       0.50958900
    51  C          0.94997000       0.25528150       0.00958900
    52  C          0.55003000       0.75528150       0.49041100
    53  C          0.21043000       0.82924860       0.00313800
    54  C          0.28957000       0.32924860       0.49686200
    55  C          0.78957000       0.17075140      -0.00313800
    56  C          0.71043000       0.67075140       0.50313800
    57  H          0.34400000       0.83060000       0.98210000
    58  H          0.15600000       0.33060000       0.51790000
    59  H          0.65600000       0.16940000       0.01790000
    60  H          0.84400000       0.66940000       0.48210000
    61  C          0.16753000       0.91209860       0.04796800
    62  C          0.33247000       0.41209860       0.45203200
    63  C          0.83247000       0.08790140       0.95203200
    64  C          0.66753000       0.58790140       0.54796800
    65  C          0.97237000       0.91340860       0.08099800
    66  C          0.52763000       0.41340860       0.41900200
    67  C          0.02763000       0.08659140       0.91900200
    68  C          0.47237000       0.58659140       0.58099800
    69  C          0.13463000       0.15978140       0.19304800
    70  C          0.36537000       0.65978140       0.30695200
    71  C          0.86537000       0.84021860       0.80695200
    72  C          0.63463000       0.34021860       0.69304800
    73  C          0.32603000       0.16510150       0.22926900
    74  C          0.17397000       0.66510150       0.27073100
    75  C          0.67397000       0.83489850       0.77073100
    76  C          0.82603000       0.33489850       0.72926900
    77  H          0.44760000       0.11750000       0.22030000
    78  H          0.05240000       0.61750000       0.27970000
    79  H          0.55240000       0.88250000       0.77970000
    80  H          0.94760000       0.38250000       0.72030000
    81  C          0.33633000       0.24099160       0.27862900
    82  C          0.16367000       0.74099160       0.22137100
    83  C          0.66367000       0.75900840       0.72137100
    84  C          0.83633000       0.25900840       0.77862900
    85  H          0.46550000       0.24530000       0.30200000
    86  H          0.03450000       0.74530000       0.19800000
    87  H          0.53450000       0.75470000       0.69800000
    88  H          0.96550000       0.25470000       0.80200000
    89  C          0.15413000       0.31019160       0.29291900
    90  C          0.34587000       0.81019160       0.20708100
    91  C          0.84587000       0.68980840       0.70708100
    92  C          0.65413000       0.18980840       0.79291900
    93  H          0.16000000       0.36020000       0.32630000
    94  H          0.34000000       0.86020000       0.17370000
    95  H          0.84000000       0.63980000       0.67370000
    96  H          0.66000000       0.13980000       0.82630000
    97  C          0.96327000       0.30493150       0.25747900
    98  C          0.53673000       0.80493150       0.24252100
    99  C          0.03673000       0.69506850       0.74252100
   100  C          0.46327000       0.19506850       0.75747900
   101  H          0.84110000       0.35150000       0.26720000
   102  H          0.65890000       0.85150000       0.23280000
   103  H          0.15890000       0.64850000       0.73280000
   104  H          0.34110000       0.14850000       0.76720000
   105  C          0.95287000       0.23051140       0.20751800
   106  C          0.54713000       0.73051140       0.29248200
   107  C          0.04713000       0.76948860       0.79248200
   108  C          0.45287000       0.26948860       0.70751800
   109  H          0.82450000       0.22800000       0.18370000
   110  H          0.67550000       0.72800000       0.31630000
   111  H          0.17550000       0.77200000       0.81630000
   112  H          0.32450000       0.27200000       0.68370000
   113  S          0.08503100       0.93476400       0.36530300
   114  S          0.41496900       0.43476400       0.13469700
   115  S          0.91496900       0.06523600       0.63469700
   116  S          0.58503100       0.56523600       0.86530300
   117  O         -0.01903000       0.84087110       0.40428700
   118  O          0.51903000       0.34087110       0.09571300
   119  O          0.01903000       0.15912890       0.59571300
   120  O          0.48097000       0.65912890       0.90428700
   121  C          0.19454000       0.04292190       0.41572120
   122  C          0.30546000       0.54292190       0.08427880
   123  C          0.80546000       0.95707810       0.58427880
   124  C          0.69454000       0.45707810       0.91572120
   125  H          0.32410000       0.01180000       0.43590000
   126  H          0.17590000       0.51180000       0.06410000
   127  H          0.67590000      -0.01180000       0.56410000
   128  H          0.82410000       0.48820000       0.93590000
   129  H          0.08400000       0.06300000       0.44510000
   130  H          0.41600000       0.56300000       0.05490000
   131  H          0.91600000       0.93700000       0.55490000
   132  H          0.58400000       0.43700000       0.94510000
   133  H          0.23460000       0.11240000       0.39340000
   134  H          0.26540000       0.61240000       0.10660000
   135  H          0.76540000       0.88760000       0.60660000
   136  H          0.73460000       0.38760000       0.89340000
   137  C          0.85804000       0.02222000       0.33722130
   138  C          0.64196000       0.52222000       0.16277870
   139  C          0.14196000       0.97778000       0.66277870
   140  C          0.35804000       0.47778000       0.83722130
   141  H          0.77500000       0.97750000       0.30780000
   142  H          0.72500000       0.47750000       0.19220000
   143  H          0.22500000       0.02250000       0.69220000
   144  H          0.27500000       0.52250000       0.80780000
   145  H          0.91500000       0.09270000       0.31870000
   146  H          0.58500000       0.59270000       0.18130000
   147  H          0.08500000       0.90730000       0.68130000
   148  H          0.41500000       0.40730000       0.81870000
   149  H          0.76250000       0.04330000       0.37010000
   150  H          0.73750000       0.54330000       0.12990000
   151  H          0.23750000       0.95670000       0.62990000
   152  H          0.26250000       0.45670000       0.87010000
