data_KUZZUB
_symmetry_space_group_name_H-M    'P1'
_symmetry_Int_Tables_number       1
loop_
_symmetry_equiv_pos_site_id
_symmetry_equiv_pos_as_xyz
1 x,y,z
_cell_length_a                   7.455501
_cell_length_b                   10.71972
_cell_length_c                   11.25372
_cell_angle_alpha                62.98101
_cell_angle_beta                 85.86301
_cell_angle_gamma                85.58401
loop_
_atom_site_label
_atom_site_type_symbol
_atom_site_fract_x
_atom_site_fract_y
_atom_site_fract_z
     1  O          0.47314130       0.61367800       0.19523800
     2  O          0.52685870       0.38632200       0.80476200
     3  O          0.41360150       0.83007900       0.17016900
     4  O          0.58639850       0.16992100       0.82983100
     5  N          0.33691160       0.67797120       0.78081890
     6  N          0.66308840       0.32202880       0.21918110
     7  C          0.47507140       0.75081110       0.12695110
     8  C          0.52492860       0.24918890       0.87304890
     9  C          0.56115150       0.79980130      -0.01155110
    10  C          0.43884850       0.20019870       0.01155110
    11  C          0.44583150       0.77265110       0.90005890
    12  C          0.55416850       0.22734890       0.09994110
    13  C          0.47745180       0.67593130       0.85291870
    14  C          0.52254820       0.32406870       0.14708130
    15  C          0.20837160       0.77659110       0.78025890
    16  C          0.79162840       0.22340890       0.21974110
    17  C          0.27307140       0.83893100       0.85482900
    18  C          0.72692860       0.16106900       0.14517100
    19  C          0.16352160       0.94084110       0.87428890
    20  C          0.83647840       0.05915890       0.12571110
    21  C         -0.00356180       0.97665130       0.82049870
    22  C          0.00356180       0.02334870       0.17950130
    23  C          0.93513820       0.91367140       0.74710860
    24  C          0.06486180       0.08632860       0.25289140
    25  C          0.03945180       0.81345140       0.72566870
    26  C          0.96054820       0.18654860       0.27433130
    27  H          0.41670000       0.59300000       0.26640000
    28  H          0.58330000       0.40700000       0.73360000
    29  H          0.33010000       0.62570000       0.74190000
    30  H          0.66990000       0.37430000       0.25810000
    31  H          0.57970000       0.89940000       0.95000000
    32  H          0.42030000       0.10060000       0.05000000
    33  H          0.67780000       0.75120000      -0.00610000
    34  H          0.32220000       0.24880000       0.00610000
    35  H          0.58030000       0.61690000       0.86780000
    36  H          0.41970000       0.38310000       0.13220000
    37  H          0.20310000       0.98350000       0.92280000
    38  H          0.79690000       0.01650000       0.07720000
    39  H          0.92280000       0.04400000       0.83320000
    40  H          0.07720000       0.95600000       0.16680000
    41  H          0.82140000       0.94000000       0.71200000
    42  H          0.17860000       0.06000000       0.28800000
    43  H         -0.00150000       0.77200000       0.67650000
    44  H          0.00150000       0.22800000       0.32350000
    45  O          0.05798140       0.34071100       0.80461900
    46  O          0.94201860       0.65928900       0.19538100
    47  O          0.34975140       0.31388900       0.43080900
    48  O          0.65024860       0.68611100       0.56919100
    49  N          0.29633120       0.51850900       0.43555800
    50  N          0.70366880       0.48149100       0.56444200
    51  N          0.24541150       0.73208100       0.43481100
    52  N          0.75458850       0.26791900       0.56518900
    53  N          0.15054120       0.54001100       0.62253900
    54  N          0.84945880       0.45998900       0.37746100
    55  C          0.23037130       0.59256100       0.49907100
    56  C          0.76962870       0.40743900       0.50092900
    57  C          0.13751150       0.40253120       0.68250110
    58  C          0.86248850       0.59746880       0.31749890
    59  C          0.20213160       0.31430110       0.62803110
    60  C          0.79786840       0.68569890       0.37196890
    61  C          0.28114140       0.37938110       0.50225110
    62  C          0.71885860       0.62061890       0.49774890
    63  C          0.97978000       0.42776170       0.86200150
    64  C          0.02022000       0.57223830       0.13799850
    65  C          0.35492000       0.16378140       0.49465170
    66  C          0.64508000       0.83621860       0.50534830
    67  H          0.29580000       0.77020000       0.35610000
    68  H          0.70420000       0.22980000       0.64390000
    69  H          0.20460000       0.78330000       0.47240000
    70  H          0.79540000       0.21670000       0.52760000
    71  H          0.19270000       0.21760000       0.67350000
    72  H          0.80730000       0.78240000       0.32650000
    73  H          0.07320000       0.47350000       0.87930000
    74  H          0.92680000       0.52650000       0.12070000
    75  H          0.91580000       0.37130000       0.94420000
    76  H          0.08420000       0.62870000       0.05580000
    77  H          0.89800000       0.49700000       0.80110000
    78  H          0.10200000       0.50300000       0.19890000
    79  H          0.42070000       0.12850000       0.57470000
    80  H          0.57930000       0.87150000       0.42530000
    81  H          0.41310000       0.12980000       0.43540000
    82  H          0.58690000       0.87020000       0.56460000
    83  H          0.23430000       0.13240000       0.51670000
    84  H          0.76570000       0.86760000       0.48330000
