data_LABJIH
_symmetry_space_group_name_H-M    'P1'
_symmetry_Int_Tables_number       1
loop_
_symmetry_equiv_pos_site_id
_symmetry_equiv_pos_as_xyz
1 x,y,z
_cell_length_a                   6.91965
_cell_length_b                   7.6738
_cell_length_c                   18.5541
_cell_angle_alpha                90.0
_cell_angle_beta                 92.5476
_cell_angle_gamma                90.0
loop_
_atom_site_label
_atom_site_type_symbol
_atom_site_fract_x
_atom_site_fract_y
_atom_site_fract_z
     1  C          0.72805000       0.13840000       0.15942000
     2  C          0.27195000       0.63840000       0.84058000
     3  C          0.90425000       0.21236000       0.13792000
     4  C          0.09575000       0.71236000       0.86208000
     5  C          0.04405000       0.25157000       0.19072000
     6  C          0.95595000       0.75157000       0.80928000
     7  C          0.01364000       0.21926000       0.26241000
     8  C         -0.01364000       0.71926000       0.73759000
     9  C          0.84136000       0.14866000       0.28332000
    10  C          0.15864000       0.64866000       0.71668000
    11  C          0.70055000       0.10906000       0.23232000
    12  C          0.29945000       0.60906000       0.76768000
    13  N          0.58314000       0.09557000       0.11012000
    14  N          0.41686000       0.59557000       0.88988000
    15  C          0.93772000       0.24618000       0.05962000
    16  C          0.06228000       0.74618000       0.94038000
    17  N          0.16184000       0.26295000       0.31641000
    18  N          0.83816000       0.76295000       0.68359000
    19  O          0.12804000       0.24116000       0.38011000
    20  O          0.87196000       0.74116000       0.61989000
    21  O          0.31534000       0.31977000       0.29811000
    22  O          0.68466000       0.81977000       0.70189000
    23  H          0.15940000       0.29540000       0.17920000
    24  H          0.84060000       0.79540000       0.82080000
    25  H          0.83260000       0.14050000       0.33120000
    26  H          0.16740000       0.64050000       0.66880000
    27  H          0.57950000       0.06840000       0.24420000
    28  H          0.42050000       0.56840000       0.75580000
    29  H          0.62550000       0.11360000       0.06620000
    30  H          0.37450000       0.61360000       0.93380000
    31  H          0.45010000       0.05100000       0.12730000
    32  H          0.54990000       0.55100000       0.87270000
    33  H          0.83430000       0.32590000       0.04130000
    34  H          0.16570000       0.82590000       0.95870000
    35  H          0.95530000       0.13100000       0.03030000
    36  H          0.04470000       0.63100000       0.96970000
    37  H          0.07250000       0.27160000       0.05120000
    38  H          0.92750000       0.77160000       0.94880000
    39  C          0.96836000       0.69786000       0.26801000
    40  C          0.03164000       0.19786000       0.73199000
    41  C          0.79076000       0.61556000       0.28202000
    42  C          0.20924000       0.11556000       0.71798000
    43  C          0.65445000       0.58086000       0.22962000
    44  C          0.34555000       0.08086000       0.77038000
    45  C          0.68686000       0.62726000       0.15892000
    46  C          0.31314000       0.12726000       0.84108000
    47  C          0.85356000       0.70686000       0.14112000
    48  C          0.14644000       0.20686000       0.85888000
    49  C         -0.00524000       0.74276000       0.19421000
    50  C          0.00524000       0.24276000       0.80579000
    51  N          0.10233000       0.73026000       0.32091000
    52  N          0.89767000       0.23026000       0.67909000
    53  C          0.08794000       0.68846000       0.39632000
    54  C          0.91206000       0.18846000       0.60368000
    55  C          0.95745000       0.81618000       0.43542000
    56  C          0.04255000       0.31618000       0.56458000
    57  C          0.29194000       0.69546000       0.42952000
    58  C          0.70806000       0.19546000       0.57048000
    59  O          0.43023000       0.74216000       0.39861000
    60  O          0.56977000       0.24216000       0.60139000
    61  O          0.29633000       0.64926000       0.49771000
    62  O          0.70367000       0.14926000       0.50229000
    63  C          0.48058000       0.66510000       0.53843000
    64  C          0.51942000       0.16510000       0.46157000
    65  N          0.16493000       0.83045000       0.17181000
    66  N          0.83507000       0.33045000       0.82819000
    67  O          0.29793000       0.86116000       0.21661000
    68  O          0.70207000       0.36116000       0.78339000
    69  O          0.17523000       0.87426000       0.10851000
    70  O          0.82477000       0.37426000       0.89149000
    71  N          0.54056000       0.58926000       0.10172000
    72  N          0.45944000       0.08926000       0.89828000
    73  O          0.57446000       0.62908000       0.04051000
    74  O          0.42554000       0.12908000       0.95949000
    75  O          0.38936000       0.52066000       0.11862000
    76  O          0.61064000       0.02066000       0.88138000
    77  H          0.76560000       0.58440000       0.32920000
    78  H          0.23440000       0.08440000       0.67080000
    79  H          0.53350000       0.53850000       0.24120000
    80  H          0.46650000       0.03850000       0.75880000
    81  H          0.87760000       0.73650000       0.09820000
    82  H          0.12240000       0.23650000       0.90180000
    83  H          0.21650000       0.77650000       0.30620000
    84  H          0.78350000       0.27650000       0.69380000
    85  H          0.03950000       0.57660000       0.40320000
    86  H          0.96050000       0.07660000       0.59680000
    87  H          0.82150000       0.80850000       0.41820000
    88  H          0.17850000       0.30850000       0.58180000
    89  H          0.95650000       0.78760000       0.48620000
    90  H          0.04350000       0.28760000       0.51380000
    91  H          0.01660000       0.92960000       0.43420000
    92  H         -0.01660000       0.42960000       0.56580000
    93  H          0.46050000       0.62460000       0.58220000
    94  H          0.53950000       0.12460000       0.41780000
    95  H          0.52380000       0.78100000       0.53530000
    96  H          0.47620000       0.28100000       0.46470000
    97  H          0.57570000       0.59990000       0.51230000
    98  H          0.42430000       0.09990000       0.48770000
