data_LABKOS
_symmetry_space_group_name_H-M    'P1'
_symmetry_Int_Tables_number       1
loop_
_symmetry_equiv_pos_site_id
_symmetry_equiv_pos_as_xyz
1 x,y,z
_cell_length_a                   5.946912
_cell_length_b                   12.1272
_cell_length_c                   20.4664
_cell_angle_alpha                101.743
_cell_angle_beta                 92.003
_cell_angle_gamma                101.563
loop_
_atom_site_label
_atom_site_type_symbol
_atom_site_fract_x
_atom_site_fract_y
_atom_site_fract_z
     1  N          0.17643000       0.73140120       0.29734700
     2  N          0.82357000       0.26859880       0.70265300
     3  C          0.21163000       0.67404140       0.34470900
     4  C          0.78837000       0.32595860       0.65529100
     5  H          0.33436900       0.63423000       0.34063500
     6  H          0.66563100       0.36577000       0.65936500
     7  C          0.08223000       0.66848160       0.39911900
     8  C          0.91777000       0.33151840       0.60088100
     9  C          0.90437000       0.72876180       0.40633900
    10  C          0.09563000       0.27123820       0.59366100
    11  C          0.86857000       0.78858170       0.35787100
    12  C          0.13143000       0.21141830       0.64212900
    13  H          0.74931800       0.83062400       0.36102500
    14  H          0.25068200       0.16937600       0.63897500
    15  C          0.00503000       0.78775150       0.30486900
    16  C         -0.00503000       0.21224850       0.69513100
    17  H         -0.02441800       0.82939400       0.27202900
    18  H          0.02441800       0.17060600       0.72797100
    19  C          0.75446000       0.72503000       0.46425120
    20  C          0.24554000       0.27497000       0.53574880
    21  H          0.65711600       0.64775500       0.45854900
    22  H          0.34288400       0.35224500       0.54145100
    23  H          0.65714900       0.78161700       0.46554000
    24  H          0.34285100       0.21838300       0.53446000
    25  H          0.85213200       0.74324900       0.50623300
    26  H          0.14786800       0.25675100       0.49376700
    27  C          0.13065000       0.59562000       0.44758130
    28  C          0.86935000       0.40438000       0.55241870
    29  H          0.17288800       0.64465200       0.49240700
    30  H          0.82711200       0.35534800       0.50759300
    31  H          0.25767700       0.55845500       0.43302400
    32  H          0.74232300       0.44154500       0.56697600
    33  H         -0.00738700       0.53648600       0.44873400
    34  H          0.00738700       0.46351400       0.55126600
    35  H          0.91970000       0.19661400       0.06528000
    36  H          0.08030000       0.80338600       0.93472000
    37  H          0.71170000       0.10731500       0.04008000
    38  H          0.28830000       0.89268500       0.95992000
    39  H          0.69070000       0.22931600       0.05929000
    40  H          0.30930000       0.77068400       0.94071000
    41  Cl         0.68900900       0.07021500       0.45181200
    42  Cl         0.31099100       0.92978500       0.54818800
    43  O          0.12144160       0.90200800       0.14154500
    44  O          0.87855840       0.09799200       0.85845500
    45  N          0.76358000       0.17452100       0.06960600
    46  N          0.23642000       0.82547900       0.93039400
    47  C          0.80538000       0.07494110       0.23479700
    48  C          0.19462000       0.92505890       0.76520300
    49  O          0.79799830       0.77742800       0.14884500
    50  O          0.20200170       0.22257200       0.85115500
    51  C         -0.01233000       0.11014120       0.28363700
    52  C          0.01233000       0.88985880       0.71636300
    53  H          0.13868900       0.13520200       0.27111600
    54  H          0.86131100       0.86479800       0.72888400
    55  C          0.95477000       0.10964140       0.35045800
    56  C          0.04523000       0.89035860       0.64954200
    57  H          0.08137100       0.13422400       0.38337700
    58  H          0.91862900       0.86577600       0.61662300
    59  C          0.73427000       0.07267140       0.36819800
    60  C          0.26573000       0.92732860       0.63180200
    61  C          0.54907000       0.03561140       0.32071800
    62  C          0.45093000       0.96438860       0.67928200
    63  H          0.39890400       0.00943100       0.33341900
    64  H          0.60109600      -0.00943100       0.66658100
    65  C          0.58497000       0.03707130       0.25427800
    66  C          0.41503000       0.96292870       0.74572200
    67  H          0.45803500       0.01196900       0.22148300
    68  H          0.54196500      -0.01196900       0.77851700
    69  C          0.84478000       0.07664110       0.16187700
    70  C          0.15522000       0.92335890       0.83812300
    71  H          0.01356600       0.10353900       0.15863600
    72  H         -0.01356600       0.89646100       0.84136400
    73  C          0.76818000       0.95452110       0.11719700
    74  C          0.23182000       0.04547890       0.88280300
    75  H          0.60201100       0.92568200       0.12057100
    76  H          0.39798900       0.07431800       0.87942900
    77  H          0.79107000       0.95830900       0.06994500
    78  H          0.20893000       0.04169100       0.93005500
    79  C          0.90328000       0.87084110       0.13755600
    80  C          0.09672000       0.12915890       0.86244400
    81  C          0.71968000       0.16284110       0.13904700
    82  C          0.28032000       0.83715890       0.86095300
    83  H          0.55203700       0.13722500       0.14177900
    84  H          0.44796300       0.86277500       0.85822100
    85  H          0.77068500       0.23911000       0.16975000
    86  H          0.22931500       0.76089000       0.83025000
    87  H          0.26130000       0.78871600       0.15719000
    88  H          0.73870000       0.21128400       0.84281000
    89  H          0.48730000       0.75001400       0.15868000
    90  H          0.51270000       0.24998600       0.84132000
    91  H          0.30530000       0.72031600       0.20781000
    92  H          0.69470000       0.27968400       0.79219000
    93  Cl         0.50010110       0.36473500       0.36226300
    94  Cl         0.49989890       0.63526500       0.63773700
    95  O          0.56519170       0.34285800       0.04009500
    96  O          0.43480830       0.65714200       0.95990500
    97  N          0.33002000       0.73036100       0.16332600
    98  N          0.66998000       0.26963900       0.83667400
    99  C          0.38842000       0.49412110       0.17315700
   100  C          0.61158000       0.50587890       0.82684300
   101  O          0.22988180       0.23092800       0.05245600
   102  O          0.77011820       0.76907200       0.94754400
   103  C          0.60483000       0.51916130       0.20762800
   104  C          0.39517000       0.48083870       0.79237200
   105  H          0.73126200       0.56365400       0.19099400
   106  H          0.26873800       0.43634600       0.80900600
   107  C          0.63973000       0.48048150       0.26576800
   108  C          0.36027000       0.51951850       0.73423200
   109  H          0.78847100       0.49814200       0.28865500
   110  H          0.21152900       0.50185800       0.71134500
   111  C          0.45583000       0.41616140       0.28984800
   112  C          0.54417000       0.58383860       0.71015200
   113  C          0.23683000       0.39302140       0.25829800
   114  C          0.76317000       0.60697860       0.74170200
   115  H          0.10992800       0.35106900       0.27614500
   116  H          0.89007200       0.64893100       0.72385500
   117  C          0.20533000       0.43204120       0.20018800
   118  C          0.79467000       0.56795880       0.79981200
   119  H          0.05527000       0.41604600       0.17825300
   120  H          0.94473000       0.58395400       0.82174700
   121  C          0.35792000       0.53045110       0.10724700
   122  C          0.64208000       0.46954890       0.89275300
   123  H          0.51457000       0.56075700       0.09384300
   124  H          0.48543000       0.43924300       0.90615700
   125  C          0.23842000       0.42855110       0.05081700
   126  C          0.76158000       0.57144890       0.94918300
   127  H          0.07432100       0.40528200       0.05904300
   128  H          0.92567900       0.59471800       0.94095700
   129  H          0.24503900       0.45304600       0.00751100
   130  H          0.75496100       0.54695400       0.99248900
   131  C          0.35352000       0.32564110       0.04693700
   132  C          0.64648000       0.67435890       0.95306300
   133  C          0.22162000       0.62601110       0.11193700
   134  C          0.77838000       0.37398890       0.88806300
   135  H          0.21113400       0.64705700       0.06782100
   136  H          0.78886600       0.35294300       0.93217900
   137  H          0.06322900       0.59677600       0.12313100
   138  H          0.93677100       0.40322400       0.87686900
   139  H          0.73270000       0.92261800       0.95341000
   140  H          0.26730000       0.07738200       0.04659000
   141  H          0.76860000       0.01541800       0.92408900
   142  H          0.23140000       0.98458200       0.07591100
   143  O          0.70997820      -0.00989100       0.95762500
   144  O          0.29002180       0.00989100       0.04237500
