data_LABVOZ
_symmetry_space_group_name_H-M    'P1'
_symmetry_Int_Tables_number       1
loop_
_symmetry_equiv_pos_site_id
_symmetry_equiv_pos_as_xyz
1 x,y,z
_cell_length_a                   9.8483
_cell_length_b                   10.6363
_cell_length_c                   23.2164
_cell_angle_alpha                90.0
_cell_angle_beta                 93.1102
_cell_angle_gamma                90.0
loop_
_atom_site_label
_atom_site_type_symbol
_atom_site_fract_x
_atom_site_fract_y
_atom_site_fract_z
     1  C          0.72983000       0.63273000       0.79339000
     2  C          0.77017000       0.13273000       0.70661000
     3  C          0.27017000       0.36727000       0.20661000
     4  C          0.22983000       0.86727000       0.29339000
     5  C          0.86324000       0.65305000       0.79149000
     6  C          0.63676000       0.15305000       0.70851000
     7  C          0.13676000       0.34695000       0.20851000
     8  C          0.36324000       0.84695000       0.29149000
     9  C          0.94884000       0.55665000       0.79409000
    10  C          0.55116000       0.05665000       0.70591000
    11  C          0.05116000       0.44335000       0.20591000
    12  C          0.44884000       0.94335000       0.29409000
    13  C          0.89954000       0.43615000       0.80019000
    14  C          0.60046000       0.93615000       0.69981000
    15  C          0.10046000       0.56385000       0.19981000
    16  C          0.39954000       0.06385000       0.30019000
    17  C          0.75543000       0.42504000       0.80349000
    18  C          0.74457000       0.92504000       0.69651000
    19  C          0.24457000       0.57496000       0.19651000
    20  C          0.25543000       0.07496000       0.30349000
    21  N          0.67452000       0.52173000       0.79959000
    22  N          0.82548000       0.02173000       0.70041000
    23  N          0.32548000       0.47827000       0.20041000
    24  N          0.17452000       0.97827000       0.29959000
    25  H          0.64750000       0.71740000       0.78980000
    26  H          0.85250000       0.21740000       0.71020000
    27  H          0.35250000       0.28260000       0.21020000
    28  H          0.14750000       0.78260000       0.28980000
    29  H          0.90650000       0.74540000       0.79180000
    30  H          0.59350000       0.24540000       0.70820000
    31  H          0.09350000       0.25460000       0.20820000
    32  H          0.40650000       0.75460000       0.29180000
    33  H          0.03340000       0.55840000       0.79680000
    34  H          0.46660000       0.05840000       0.70320000
    35  H          0.96660000       0.44160000       0.20320000
    36  H          0.53340000       0.94160000       0.29680000
    37  H          0.91330000       0.36120000       0.80490000
    38  H          0.58670000       0.86120000       0.69510000
    39  H          0.08670000       0.63880000       0.19510000
    40  H          0.41330000       0.13880000       0.30490000
    41  H          0.71730000       0.35630000       0.80690000
    42  H          0.78270000       0.85630000       0.69310000
    43  H          0.28270000       0.64370000       0.19310000
    44  H          0.21730000       0.14370000       0.30690000
    45  C          0.55173000       0.26242000       0.00931000
    46  C          0.94827000       0.76242000       0.49069000
    47  C          0.44827000       0.73758000       0.99069000
    48  C          0.05173000       0.23758000       0.50931000
    49  C          0.67532000       0.15112000       0.08471000
    50  C          0.82468000       0.65112000       0.41529000
    51  C          0.32468000       0.84888000       0.91529000
    52  C          0.17532000       0.34888000       0.58471000
    53  C          0.56882000       0.35162000       0.10551000
    54  C          0.93118000       0.85162000       0.39449000
    55  C          0.43118000       0.64838000       0.89449000
    56  C          0.06882000       0.14838000       0.60551000
    57  C          0.69209190       0.45359170       0.02885800
    58  C          0.80790810       0.95359170       0.47114200
    59  C          0.30790810       0.54640830       0.97114200
    60  C          0.19209190       0.04640830       0.52885800
    61  C          0.77822000       0.51802000       0.06861000
    62  C          0.72178000       0.01802000       0.43139000
    63  C          0.22178000       0.48198000       0.93139000
    64  C          0.27822000       0.98198000       0.56861000
    65  C          0.87402000       0.60142000       0.05101000
    66  C          0.62598000       0.10142000       0.44899000
    67  C          0.12598000       0.39858000       0.94899000
    68  C          0.37402000       0.89858000       0.55101000
    69  C          0.88582000       0.62152000       0.99279000
    70  C          0.61418000       0.12152000       0.50721000
    71  C          0.11418000       0.37848000       0.00721000
    72  C          0.38582000       0.87848000       0.49279000
    73  C          0.80242000       0.56082000       0.95239000
    74  C          0.69758000       0.06082000       0.54761000
    75  C          0.19758000       0.43918000       0.04761000
    76  C          0.30242000       0.93918000       0.45239000
    77  C          0.70602000       0.47802000       0.96979000
    78  C          0.79398000       0.97802000       0.53021000
    79  C          0.29398000       0.52198000       0.03021000
    80  C          0.20602000       0.02198000       0.46979000
    81  C          0.43543190       0.09717170       0.06383800
    82  C          0.06456810       0.59717170       0.43616200
    83  C          0.56456810       0.90282830       0.93616200
    84  C          0.93543190       0.40282830       0.56383800
    85  C          0.42792000       0.04492000       0.11881000
    86  C          0.07208000       0.54492000       0.38119000
    87  C          0.57208000       0.95508000       0.88119000
    88  C          0.92792000       0.45508000       0.61881000
    89  C          0.30862000      -0.00722000       0.13561000
    90  C          0.19138000       0.49278000       0.36439000
    91  C          0.69138000       0.00722000       0.86439000
    92  C          0.80862000       0.50722000       0.63561000
    93  C          0.19592000      -0.00702000       0.09861000
    94  C          0.30408000       0.49298000       0.40139000
    95  C          0.80408000       0.00702000       0.90139000
    96  C          0.69592000       0.50702000       0.59861000
    97  C          0.20032000       0.04202000       0.04371000
    98  C          0.29968000       0.54202000       0.45629000
    99  C          0.79968000       0.95798000       0.95629000
   100  C          0.70032000       0.45798000       0.54371000
   101  C          0.31942000       0.09312000       0.02681000
   102  C          0.18058000       0.59312000       0.47319000
   103  C          0.68058000       0.90688000       0.97319000
   104  C          0.81942000       0.40688000       0.52681000
   105  C          0.70872190       0.24436170       0.18352700
   106  C          0.79127810       0.74436170       0.31647300
   107  C          0.29127810       0.75563830       0.81647300
   108  C          0.20872190       0.25563830       0.68352700
   109  C          0.65832000       0.32242000       0.22651000
   110  C          0.84168000       0.82242000       0.27349000
   111  C          0.34168000       0.67758000       0.77349000
   112  C          0.15832000       0.17758000       0.72651000
   113  C          0.71492000       0.32012000       0.28161000
   114  C          0.78508000       0.82012000       0.21839000
   115  C          0.28508000       0.67988000       0.71839000
   116  C          0.21492000       0.17988000       0.78161000
   117  C          0.82145190       0.23869170       0.29580700
   118  C          0.67854810       0.73869170       0.20419300
   119  C          0.17854810       0.76130830       0.70419300
   120  C          0.32145190       0.26130830       0.79580700
   121  C          0.87052000       0.15762000       0.25511000
   122  C          0.62948000       0.65762000       0.24489000
   123  C          0.12948000       0.84238000       0.74489000
   124  C          0.37052000       0.34238000       0.75511000
   125  C          0.81494190       0.16042180       0.19952800
   126  C          0.68505810       0.66042180       0.30047200
   127  C          0.18505810       0.83957820       0.80047200
   128  C          0.31494190       0.33957820       0.69952800
   129  N          0.59323170       0.37087150       0.04541600
   130  N          0.90676830       0.87087150       0.45458400
   131  N          0.40676830       0.62912850       0.95458400
   132  N          0.09323170       0.12912850       0.54541600
   133  N          0.55628160       0.14974140       0.04571600
   134  N          0.94371840       0.64974140       0.45428400
   135  N          0.44371840       0.85025860       0.95428400
   136  N          0.05628160       0.35025860       0.54571600
   137  N          0.65739170       0.24993140       0.12818600
   138  N          0.84260830       0.74993140       0.37181400
   139  N          0.34260830       0.75006860       0.87181400
   140  N          0.15739170       0.25006860       0.62818600
   141  N         -0.00897810       0.70584170       0.97353100
   142  N          0.50897810       0.20584170       0.52646900
   143  N          0.00897810       0.29415830       0.02646900
   144  N          0.49102190       0.79415830       0.47353100
   145  N          0.06822000       0.94468000       0.11791000
   146  N          0.43178000       0.44468000       0.38209000
   147  N          0.93178000       0.05532000       0.88209000
   148  N          0.56822000       0.55532000       0.61791000
   149  N          0.88302180       0.24072160       0.35350700
   150  N          0.61697820       0.74072160       0.14649300
   151  N          0.11697820       0.75927840       0.64649300
   152  N          0.38302180       0.25927840       0.85350700
   153  O         -0.00034810       0.72266160       0.92162200
   154  O          0.50034810       0.22266160       0.57837800
   155  O          0.00034810       0.27733840       0.07837800
   156  O          0.49965190       0.77733840       0.42162200
   157  O          0.06732180       0.75546160       0.01005800
   158  O          0.43267820       0.25546160       0.48994200
   159  O          0.93267820       0.24453840       0.98994200
   160  O          0.56732180       0.74453840       0.51005800
   161  O          0.96358830       0.96158830       0.08927700
   162  O          0.53641170       0.46158830       0.41072300
   163  O          0.03641170       0.03841170       0.91072300
   164  O          0.46358830       0.53841170       0.58927700
   165  O          0.07052000       0.88887000       0.16341000
   166  O          0.42948000       0.38887000       0.33659000
   167  O          0.92948000       0.11113000       0.83659000
   168  O          0.57052000       0.61113000       0.66341000
   169  O          0.84281180       0.31861150       0.38795600
   170  O          0.65718820       0.81861150       0.11204400
   171  O          0.15718820       0.68138850       0.61204400
   172  O          0.34281180       0.18138850       0.88795600
   173  O          0.97351180       0.16439160       0.36663600
   174  O          0.52648820       0.66439160       0.13336400
   175  O          0.02648820       0.83560840       0.63336400
   176  O          0.47351180       0.33560840       0.86663600
   177  H          0.61120000       0.24920000       0.97890000
   178  H          0.88880000       0.74920000       0.52110000
   179  H          0.38880000       0.75080000       0.02110000
   180  H          0.11120000       0.25080000       0.47890000
   181  H          0.46220000       0.27820000      -0.00510000
   182  H          0.03780000       0.77820000       0.50510000
   183  H          0.53780000       0.72180000       0.00510000
   184  H          0.96220000       0.22180000       0.49490000
   185  H          0.68661800       0.07201800       0.10377000
   186  H          0.81338200       0.57201800       0.39623000
   187  H          0.31338200       0.92798200       0.89623000
   188  H          0.18661800       0.42798200       0.60377000
   189  H          0.75520000       0.17020000       0.06210000
   190  H          0.74480000       0.67020000       0.43790000
   191  H          0.24480000       0.82980000       0.93790000
   192  H          0.25520000       0.32980000       0.56210000
   193  H          0.58611900       0.43081800       0.12828000
   194  H          0.91388100       0.93081800       0.37172000
   195  H          0.41388100       0.56918200       0.87172000
   196  H          0.08611900       0.06918200       0.62828000
   197  H          0.47120000       0.33020000       0.10910000
   198  H          0.02880000       0.83020000       0.39090000
   199  H          0.52880000       0.66980000       0.89090000
   200  H          0.97120000       0.16980000       0.60910000
   201  H          0.77581900       0.49921600       0.10829000
   202  H          0.72418100      -0.00078400       0.39171000
   203  H          0.22418100       0.50078400       0.89171000
   204  H          0.27581900       0.00078400       0.60829000
   205  H          0.93220000       0.64320000       0.07910000
   206  H          0.56780000       0.14320000       0.42090000
   207  H          0.06780000       0.35680000       0.92090000
   208  H          0.43220000       0.85680000       0.57910000
   209  H          0.81420000       0.57220000       0.91190000
   210  H          0.68580000       0.07220000       0.58810000
   211  H          0.18580000       0.42780000       0.08810000
   212  H          0.31420000       0.92780000       0.41190000
   213  H          0.64920000       0.43720000       0.94090000
   214  H          0.85080000       0.93720000       0.55910000
   215  H          0.35080000       0.56280000       0.05910000
   216  H          0.14920000       0.06280000       0.44090000
   217  H          0.50120000       0.04620000       0.14610000
   218  H         -0.00120000       0.54620000       0.35390000
   219  H          0.49880000       0.95380000       0.85390000
   220  H          0.00120000       0.45380000       0.64610000
   221  H          0.30020000       0.96280000       0.17310000
   222  H          0.19980000       0.46280000       0.32690000
   223  H          0.69980000       0.03720000       0.82690000
   224  H          0.80020000       0.53720000       0.67310000
   225  H          0.12320000       0.03520000       0.01910000
   226  H          0.37680000       0.53520000       0.48090000
   227  H          0.87680000       0.96480000       0.98090000
   228  H          0.62320000       0.46480000       0.51910000
   229  H          0.32220000       0.12120000       0.98990000
   230  H          0.17780000       0.62120000       0.51010000
   231  H          0.67780000       0.87880000       0.01010000
   232  H          0.82220000       0.37880000       0.48990000
   233  H          0.58320000       0.37520000       0.21610000
   234  H          0.91680000       0.87520000       0.28390000
   235  H          0.41680000       0.62480000       0.78390000
   236  H          0.08320000       0.12480000       0.71610000
   237  H          0.67721900       0.37241600       0.31048000
   238  H          0.82278100       0.87241600       0.18952000
   239  H          0.32278100       0.62758400       0.68952000
   240  H          0.17721900       0.12758400       0.81048000
   241  H          0.94520000       0.09820000       0.26410000
   242  H          0.55480000       0.59820000       0.23590000
   243  H          0.05480000       0.90180000       0.73590000
   244  H          0.44520000       0.40180000       0.76410000
   245  H          0.85141800       0.10651600       0.17217000
   246  H          0.64858200       0.60651600       0.32783000
   247  H          0.14858200       0.89348400       0.82783000
   248  H          0.35141800       0.39348400       0.67217000
