data_LADCEA
_symmetry_space_group_name_H-M    'P1'
_symmetry_Int_Tables_number       1
loop_
_symmetry_equiv_pos_site_id
_symmetry_equiv_pos_as_xyz
1 x,y,z
_cell_length_a                   5.31722
_cell_length_b                   8.65483
_cell_length_c                   14.99276
_cell_angle_alpha                101.9702
_cell_angle_beta                 93.0372
_cell_angle_gamma                100.8162
loop_
_atom_site_label
_atom_site_type_symbol
_atom_site_fract_x
_atom_site_fract_y
_atom_site_fract_z
     1  Br        -0.03082600       0.78543800       0.23831213
     2  Br         0.03082600       0.21456200       0.76168787
     3  N          0.54643000       0.13526170       0.23390100
     4  N          0.45357000       0.86473830       0.76609900
     5  C          0.65363000       0.25272000       0.30675110
     6  C          0.34637000       0.74728000       0.69324890
     7  N          0.53563000       0.38427180       0.31984100
     8  N          0.46437000       0.61572820       0.68015900
     9  H          0.42940000       0.37730000       0.28371500
    10  H          0.57060000       0.62270000       0.71628500
    11  C          0.86273000       0.23972000       0.36339120
    12  C          0.13727000       0.76028000       0.63660880
    13  H          0.93570000       0.32420000       0.41450000
    14  H          0.06430000       0.67580000       0.58550000
    15  C          0.96013000       0.10112000       0.34301120
    16  C          0.03987000       0.89888000       0.65698880
    17  H          0.10260000       0.08870000       0.37990000
    18  H          0.89740000       0.91130000       0.62010000
    19  C          0.84833000       0.97978000       0.26809120
    20  C          0.15167000       0.02022000       0.73190880
    21  C          0.64273000       0.00072000       0.21546120
    22  C          0.35727000      -0.00072000       0.78453880
    23  H          0.56630000       0.91710000       0.16440000
    24  H          0.43370000       0.08290000       0.83560000
    25  C          0.59553000       0.52432000       0.38641120
    26  C          0.40447000       0.47568000       0.61358880
    27  O          0.77163000       0.55259160       0.44625900
    28  O          0.22837000       0.44740840       0.55374100
    29  C          0.41794000       0.63762000       0.37754130
    30  C          0.58206000       0.36238000       0.62245870
    31  H          0.24280000       0.58790000       0.38910000
    32  H          0.75720000       0.41210000       0.61090000
    33  H          0.40960000       0.65340000       0.31400000
    34  H          0.59040000       0.34660000       0.68600000
    35  C          0.50204000       0.80052000       0.44309130
    36  C          0.49796000       0.19948000       0.55690870
    37  H          0.38390000       0.87070000       0.43260000
    38  H          0.61610000       0.12930000       0.56740000
    39  H          0.67660000       0.84960000       0.43280000
    40  H          0.32340000       0.15040000       0.56720000
    41  H          0.49980000       0.78660000       0.50630000
    42  H          0.50020000       0.21340000       0.49370000
    43  C          0.05903000       0.25752000       0.11701110
    44  C          0.94097000       0.74248000       0.88298890
    45  O          0.16053000       0.12754150       0.10213900
    46  O          0.83947000       0.87245850       0.89786100
    47  H          0.26440000       0.13430000       0.14151600
    48  H          0.73560000       0.86570000       0.85848400
    49  O          0.13012000       0.36980160       0.18247900
    50  O          0.86988000       0.63019840       0.81752100
    51  C          0.84887000       0.25522000       0.04505110
    52  C          0.15113000       0.74478000       0.95494890
    53  H          0.70800000       0.16130000       0.04270000
    54  H          0.29200000       0.83870000       0.95730000
    55  H          0.91770000       0.24250000       0.98450000
    56  H          0.08230000       0.75750000       0.01550000
    57  C          0.74237000       0.40872000       0.06445110
    58  C          0.25763000       0.59128000       0.93554890
    59  H          0.88750000       0.50250000       0.07400000
    60  H          0.11250000       0.49750000       0.92600000
    61  H          0.65860000       0.41470000       0.12210000
    62  H          0.34140000       0.58530000       0.87790000
    63  C          0.54887000       0.42172000       0.98899890
    64  C          0.45113000       0.57828000       0.01100110
    65  H          0.63090000       0.41490000       0.93090000
    66  H          0.36910000       0.58510000       0.06910000
    67  H          0.40120000       0.32950000       0.98000000
    68  H          0.59880000       0.67050000       0.02000000
