data_LADCAX
_symmetry_space_group_name_H-M    'P1'
_symmetry_Int_Tables_number       1
loop_
_symmetry_equiv_pos_site_id
_symmetry_equiv_pos_as_xyz
1 x,y,z
_cell_length_a                   9.95745
_cell_length_b                   16.97159
_cell_length_c                   18.07879
_cell_angle_alpha                90.0
_cell_angle_beta                 90.0
_cell_angle_gamma                90.0
loop_
_atom_site_label
_atom_site_type_symbol
_atom_site_fract_x
_atom_site_fract_y
_atom_site_fract_z
     1  I          0.97902300       0.30255616       0.98398618
     2  I          0.52097700       0.69744384       0.48398618
     3  I          0.47902300       0.19744384       0.01601382
     4  I          0.02097700       0.80255616       0.51601382
     5  I          0.32471300       0.83753881       0.33453615
     6  I          0.17528700       0.16246119       0.83453615
     7  I          0.82471300       0.66246119       0.66546385
     8  I          0.67528700       0.33753881       0.16546385
     9  I          0.79178400       0.94683800       0.65652016
    10  I          0.70821600       0.05316200       0.15652016
    11  I          0.29178400       0.55316200       0.34347984
    12  I          0.20821600       0.44683800       0.84347984
    13  I         -0.00875600       0.51082784       0.05694617
    14  I          0.50875600       0.48917216       0.55694617
    15  I          0.49124400       0.98917216       0.94305383
    16  I          0.00875600       0.01082784       0.44305383
    17  C          0.00554000       0.87698000       0.98165190
    18  C          0.49446000       0.12302000       0.48165190
    19  C          0.50554000       0.62302000       0.01834810
    20  C         -0.00554000       0.37698000       0.51834810
    21  C          0.23954000       0.87228000       0.23392000
    22  C          0.26046000       0.12772000       0.73392000
    23  C          0.73954000       0.62772000       0.76608000
    24  C          0.76046000       0.37228000       0.26608000
    25  C          0.00534000       0.79202810       0.00087180
    26  C          0.49466000       0.20797190       0.50087180
    27  C          0.50534000       0.70797190      -0.00087180
    28  C         -0.00534000       0.29202810       0.49912820
    29  C          0.02574000       0.01902000       0.01875190
    30  C          0.47426000       0.98098000       0.51875190
    31  C          0.52574000       0.48098000       0.98124810
    32  C          0.97426000       0.51902000       0.48124810
    33  C          0.22474000       0.86188000       0.10252000
    34  C          0.27526000       0.13812000       0.60252000
    35  C          0.72474000       0.63812000       0.89748000
    36  C          0.77526000       0.36188000       0.39748000
    37  H          0.25810000       0.84100000       0.05740000
    38  H          0.24190000       0.15900000       0.55740000
    39  H          0.75810000       0.65900000       0.94260000
    40  H          0.74190000       0.34100000       0.44260000
    41  C          0.83914000       0.86088000       0.88012000
    42  C          0.66086000       0.13912000       0.38012000
    43  C          0.33914000       0.63912000       0.11988000
    44  C          0.16086000       0.36088000       0.61988000
    45  H          0.79160000       0.82530000       0.91110000
    46  H          0.70840000       0.17470000       0.41110000
    47  H          0.29160000       0.67470000       0.08890000
    48  H          0.20840000       0.32530000       0.58890000
    49  C          0.90734000       0.05012000       0.99042000
    50  C          0.59266000       0.94988000       0.49042000
    51  C          0.40734000       0.44988000       0.00958000
    52  C          0.09266000       0.55012000       0.50958000
    53  H          0.83650000       0.01530000       0.97730000
    54  H          0.66350000       0.98470000       0.47730000
    55  H          0.33650000       0.48470000       0.02270000
    56  H          0.16350000       0.51530000       0.52270000
    57  C          0.97905000       0.96188000       0.78862000
    58  C          0.52095000       0.03812000       0.28862000
    59  C          0.47905000       0.53812000       0.21138000
    60  C          0.02095000       0.46188000       0.71138000
    61  H          0.02740000      -0.00350000       0.75690000
    62  H          0.47260000       0.00350000       0.25690000
    63  H          0.52740000       0.50350000       0.24310000
    64  H          0.97260000       0.49650000       0.74310000
    65  C          0.94284000       0.76398000       0.06462000
    66  C          0.55716000       0.23602000       0.56462000
    67  C          0.44284000       0.73602000       0.93538000
    68  C          0.05716000       0.26398000       0.43538000
    69  H          0.90120000       0.80020000       0.09740000
    70  H          0.59880000       0.19980000       0.59740000
    71  H          0.40120000       0.69980000       0.90260000
    72  H          0.09880000       0.30020000       0.40260000
    73  C          0.11504000       0.91218000       0.10112000
    74  C          0.38496000       0.08782000       0.60112000
    75  C          0.61504000       0.58782000       0.89888000
    76  C          0.88496000       0.41218000       0.39888000
    77  C         -0.00746000       0.18090190       0.00142000
    78  C          0.50746000       0.81909810       0.50142000
    79  C          0.49254000       0.31909810      -0.00142000
    80  C          0.00746000       0.68090190       0.49858000
    81  C          0.04614000       0.93298000       0.03052190
    82  C          0.45386000       0.06702000       0.53052190
    83  C          0.54614000       0.56702000       0.96947810
    84  C          0.95386000       0.43298000       0.46947810
    85  C          0.06574000       0.73648000       0.95362000
    86  C          0.43426000       0.26352000       0.45362000
    87  C          0.56574000       0.76352000       0.04638000
    88  C          0.93426000       0.23648000       0.54638000
    89  H          0.10820000       0.75390000       0.90940000
    90  H          0.39180000       0.24610000       0.40940000
    91  H          0.60820000       0.74610000       0.09060000
    92  H          0.89180000       0.25390000       0.59060000
    93  C          0.06414000       0.65688000       0.97042000
    94  C          0.43586000       0.34312000       0.47042000
    95  C          0.56414000       0.84312000       0.02958000
    96  C          0.93586000       0.15688000       0.52958000
    97  H          0.10660000       0.62010000       0.93850000
    98  H          0.39340000       0.37990000       0.43850000
    99  H          0.60660000       0.87990000       0.06150000
   100  H          0.89340000       0.12010000       0.56150000
   101  C          0.12564000       0.07172000       0.04032000
   102  C          0.37436000       0.92828000       0.54032000
   103  C          0.62564000       0.42828000       0.95968000
   104  C          0.87436000       0.57172000       0.45968000
   105  H          0.20640000       0.05200000       0.06120000
   106  H          0.29360000       0.94800000       0.56120000
   107  H          0.70640000       0.44800000       0.93880000
   108  H          0.79360000       0.55200000       0.43880000
   109  C          0.95604000       0.89598000       0.90612000
   110  C          0.54396000       0.10402000       0.40612000
   111  C          0.45604000       0.60402000       0.09388000
   112  C          0.04396000       0.39598000       0.59388000
   113  C          0.86075000       0.92648000       0.76452000
   114  C          0.63925000       0.07352000       0.26452000
   115  C          0.36075000       0.57352000       0.23548000
   116  C          0.13925000       0.42648000       0.73548000
   117  C          0.02515000       0.94608000       0.85922000
   118  C          0.47485000       0.05392000       0.35922000
   119  C          0.52515000       0.55392000       0.14078000
   120  C          0.97485000       0.44608000       0.64078000
   121  H          0.10580000       0.97020000       0.87590000
   122  H          0.39420000       0.02980000       0.37590000
   123  H          0.60580000       0.52980000       0.12410000
   124  H          0.89420000       0.47020000       0.62410000
   125  C          0.28714000       0.84148000       0.16862000
   126  C          0.21286000       0.15852000       0.66862000
   127  C          0.78714000       0.65852000       0.83138000
   128  C          0.71286000       0.34148000       0.33138000
   129  H          0.36170000       0.80670000       0.16860000
   130  H          0.13830000       0.19330000       0.66860000
   131  H          0.86170000       0.69330000       0.83140000
   132  H          0.63830000       0.30670000       0.33140000
   133  C          0.00064000       0.63158000       0.03362000
   134  C          0.49936000       0.36842000       0.53362000
   135  C          0.50064000       0.86842000       0.96638000
   136  C         -0.00064000       0.13158000       0.46638000
   137  C          0.13404000       0.92538000       0.23382000
   138  C          0.36596000       0.07462000       0.73382000
   139  C          0.63404000       0.57462000       0.76618000
   140  C          0.86596000       0.42538000       0.26618000
   141  H          0.10360000       0.94820000       0.27880000
   142  H          0.39640000       0.05180000       0.77880000
   143  H          0.60360000       0.55180000       0.72120000
   144  H          0.89640000       0.44820000       0.22120000
   145  C          0.07334000       0.94508000       0.16742000
   146  C          0.42666000       0.05492000       0.66742000
   147  C          0.57334000       0.55492000       0.83258000
   148  C          0.92666000       0.44508000       0.33258000
   149  H          0.00160000       0.98210000       0.16720000
   150  H          0.49840000       0.01790000       0.66720000
   151  H          0.50160000       0.51790000       0.83280000
   152  H         -0.00160000       0.48210000       0.33280000
   153  C          0.88964000       0.13022000       0.98062000
   154  C          0.61036000       0.86978000       0.48062000
   155  C          0.38964000       0.36978000       0.01938000
   156  C          0.11036000       0.63022000       0.51938000
   157  H          0.80870000       0.15020000       0.96020000
   158  H          0.69130000       0.84980000       0.46020000
   159  H          0.30870000       0.34980000       0.03980000
   160  H          0.19130000       0.65020000       0.53980000
   161  C          0.79035000       0.87657000       0.80962000
   162  C          0.70965000       0.12343000       0.30962000
   163  C          0.29035000       0.62343000       0.19038000
   164  C          0.20965000       0.37657000       0.69038000
   165  H          0.70920000       0.85310000       0.79300000
   166  H          0.79080000       0.14690000       0.29300000
   167  H          0.20920000       0.64690000       0.20700000
   168  H          0.29080000       0.35310000       0.70700000
   169  C          0.94004000       0.68458000       0.08102000
   170  C          0.55996000       0.31542000       0.58102000
   171  C          0.44004000       0.81542000       0.91898000
   172  C          0.05996000       0.18458000       0.41898000
   173  H          0.89670000       0.66650000       0.12460000
   174  H          0.60330000       0.33350000       0.62460000
   175  H          0.39670000       0.83350000       0.87540000
   176  H          0.10330000       0.16650000       0.37540000
   177  C          0.10954000       0.15232000       0.03172000
   178  C          0.39046000       0.84768000       0.53172000
   179  C          0.60954000       0.34768000       0.96828000
   180  C          0.89046000       0.65232000       0.46828000
   181  H          0.17860000       0.18750000       0.04660000
   182  H          0.32140000       0.81250000       0.54660000
   183  H          0.67860000       0.31250000       0.95340000
   184  H          0.82140000       0.68750000       0.45340000
   185  C          0.92948000       0.75654000       0.28934000
   186  C          0.57052000       0.24346000       0.78934000
   187  C          0.42948000       0.74346000       0.71066000
   188  C          0.07052000       0.25654000       0.21066000
   189  H          0.01980000       0.77090000       0.29960000
   190  H          0.48020000       0.22910000       0.79960000
   191  H          0.51980000       0.72910000       0.70040000
   192  H          0.98020000       0.27090000       0.20040000
   193  C          0.83339000       0.81385000       0.27904000
   194  C          0.66661000       0.18615000       0.77904000
   195  C          0.33339000       0.68615000       0.72096000
   196  C          0.16661000       0.31385000       0.22096000
   197  H          0.85840000       0.86780000       0.28220000
   198  H          0.64160000       0.13220000       0.78220000
   199  H          0.35840000       0.63220000       0.71780000
   200  H          0.14160000       0.36780000       0.21780000
   201  C          0.70127000       0.79475000       0.26424000
   202  C          0.79873000       0.20525000       0.76424000
   203  C          0.20127000       0.70525000       0.73576000
   204  C          0.29873000       0.29475000       0.23576000
   205  H          0.63570000       0.83460000       0.25620000
   206  H          0.86430000       0.16540000       0.75620000
   207  H          0.13570000       0.66540000       0.74380000
   208  H          0.36430000       0.33460000       0.24380000
   209  C          0.66797000       0.71716000       0.26143000
   210  C          0.83203000       0.28284000       0.76143000
   211  C          0.16797000       0.78284000       0.73857000
   212  C          0.33203000       0.21716000       0.23857000
   213  H          0.57710000       0.70260000       0.25270000
   214  H          0.92290000       0.29740000       0.75270000
   215  H          0.07710000       0.79740000       0.74730000
   216  H          0.42290000       0.20260000       0.24730000
   217  C          0.76287000       0.65956000       0.27103000
   218  C          0.73713000       0.34044000       0.77103000
   219  C          0.26287000       0.84044000       0.72897000
   220  C          0.23713000       0.15956000       0.22897000
   221  H          0.73720000       0.60580000       0.26800000
   222  H          0.76280000       0.39420000       0.76800000
   223  H          0.23720000       0.89420000       0.73200000
   224  H          0.26280000       0.10580000       0.23200000
   225  C          0.89366000       0.67845000       0.28473000
   226  C          0.60634000       0.32155000       0.78473000
   227  C          0.39366000       0.82155000       0.71527000
   228  C          0.10634000       0.17845000       0.21527000
   229  H          0.95900000       0.63830000       0.29100000
   230  H          0.54100000       0.36170000       0.79100000
   231  H          0.45900000       0.86170000       0.70900000
   232  H          0.04100000       0.13830000       0.20900000
