data_LADCUQ
_symmetry_space_group_name_H-M    'P1'
_symmetry_Int_Tables_number       1
loop_
_symmetry_equiv_pos_site_id
_symmetry_equiv_pos_as_xyz
1 x,y,z
_cell_length_a                   5.18494
_cell_length_b                   11.46658
_cell_length_c                   12.48709
_cell_angle_alpha                71.2932
_cell_angle_beta                 81.2042
_cell_angle_gamma                88.5932
loop_
_atom_site_label
_atom_site_type_symbol
_atom_site_fract_x
_atom_site_fract_y
_atom_site_fract_z
     1  Br         0.77714400       0.54555485       0.21377615
     2  Br         0.22285600       0.45444515       0.78622385
     3  N          0.73383000       0.89108880       0.24309110
     4  N          0.26617000       0.10891120       0.75690890
     5  C          0.95183000       0.94837860       0.17696130
     6  C          0.04817000       0.05162140       0.82303870
     7  N          0.97523000       0.07005120       0.17075120
     8  N          0.02477000       0.92994880       0.82924880
     9  H          0.85540000       0.09411900       0.20891800
    10  H          0.14460000       0.90588100       0.79108200
    11  C          0.13553000       0.88908850       0.11985140
    12  C          0.86447000       0.11091150       0.88014860
    13  H          0.28980000       0.93140000       0.07420000
    14  H          0.71020000       0.06860000       0.92580000
    15  C          0.08733000       0.76785850       0.13148140
    16  C          0.91267000       0.23214150       0.86851860
    17  H          0.20910000       0.72450000       0.09440000
    18  H          0.79090000       0.27550000       0.90560000
    19  C          0.85943000       0.70992860       0.19789130
    20  C          0.14057000       0.29007140       0.80210870
    21  C          0.68863000       0.77396860       0.25227140
    22  C          0.31137000       0.22603140       0.74772860
    23  H          0.53280000       0.73340000       0.29800000
    24  H          0.46720000       0.26660000       0.70200000
    25  C          0.17593000       0.15299140       0.11543130
    26  C          0.82407000       0.84700860       0.88456870
    27  O          0.37402000       0.12933110       0.06230110
    28  O          0.62598000       0.87066890       0.93769890
    29  C          0.12243000       0.27895140       0.12643150
    30  C          0.87757000       0.72104860       0.87356850
    31  H          0.04060000       0.26950000       0.20590000
    32  H          0.95940000       0.73050000       0.79410000
    33  H         -0.00320000       0.32030000       0.07490000
    34  H          0.00320000       0.67970000       0.92510000
    35  C          0.36703000       0.35937150       0.09733160
    36  C          0.63297000       0.64062850       0.90266840
    37  H          0.32170000       0.43970000       0.10600000
    38  H          0.67830000       0.56030000       0.89400000
    39  H          0.44660000       0.37080000       0.01810000
    40  H          0.55340000       0.62920000       0.98190000
    41  H          0.49090000       0.31970000       0.14900000
    42  H          0.50910000       0.68030000       0.85100000
    43  C          0.40663000       0.09111130       0.37417130
    44  C          0.59337000       0.90888870       0.62582870
    45  O          0.35342000       0.97944890       0.37418110
    46  O          0.64658000       0.02055110       0.62581890
    47  H          0.46350000       0.95980000       0.33520000
    48  H          0.53650000       0.04020000       0.66480000
    49  O          0.60722000       0.14713110       0.32375110
    50  O          0.39278000       0.85286890       0.67624890
    51  C          0.19583000       0.14306140       0.44073130
    52  C          0.80417000       0.85693860       0.55926870
    53  H          0.16720000       0.08910000       0.52150000
    54  H          0.83280000       0.91090000       0.47850000
    55  H          0.03110000       0.14370000       0.40960000
    56  H          0.96890000       0.85630000       0.59040000
    57  C          0.26243000       0.27277140       0.43627140
    58  C          0.73757000       0.72722860       0.56372860
    59  H          0.41120000       0.26980000       0.47810000
    60  H          0.58880000       0.73020000       0.52190000
    61  H          0.31880000       0.32310000       0.35550000
    62  H          0.68120000       0.67690000       0.64450000
    63  C          0.03763000       0.33511140       0.48697140
    64  C          0.96237000       0.66488860       0.51302860
    65  H         -0.01640000       0.28660000       0.56840000
    66  H          0.01640000       0.71340000       0.43160000
    67  H          0.88700000       0.33720000       0.44630000
    68  H          0.11300000       0.66280000       0.55370000
    69  C          0.11173000       0.46564140       0.47809150
    70  C          0.88827000       0.53435860       0.52190850
    71  H          0.25660000       0.46250000       0.52210000
    72  H          0.74340000       0.53750000       0.47790000
    73  H          0.17610000       0.51210000       0.39700000
    74  H          0.82390000       0.48790000       0.60300000
