data_LADCAW
_symmetry_space_group_name_H-M    'P1'
_symmetry_Int_Tables_number       1
loop_
_symmetry_equiv_pos_site_id
_symmetry_equiv_pos_as_xyz
1 x,y,z
_cell_length_a                   3.90192
_cell_length_b                   12.54548
_cell_length_c                   16.92601
_cell_angle_alpha                73.1283
_cell_angle_beta                 86.4283
_cell_angle_gamma                85.8813
loop_
_atom_site_label
_atom_site_type_symbol
_atom_site_fract_x
_atom_site_fract_y
_atom_site_fract_z
     1  Br         0.19124400       0.87520311       0.07940880
     2  Br         0.80875600       0.12479689       0.92059120
     3  N          0.33293000       0.54554100       0.21372700
     4  N          0.66707000       0.45445900       0.78627300
     5  C          0.52573000       0.49928110       0.16214800
     6  C          0.47427000       0.50071890       0.83785200
     7  N          0.60373000       0.38542100       0.19503700
     8  N          0.39627000       0.61457900       0.80496300
     9  H          0.50850000       0.35651600       0.24091200
    10  H          0.49150000       0.64348400       0.75908800
    11  C          0.63264000       0.56282120       0.08289800
    12  C          0.36736000       0.43717880       0.91710200
    13  H          0.76830000       0.52900000       0.04720000
    14  H          0.23170000       0.47100000       0.95280000
    15  C          0.53724000       0.67553120       0.05760800
    16  C          0.46276000       0.32446880       0.94239200
    17  H          0.60750000       0.72040000       0.00430000
    18  H          0.39250000       0.27960000      -0.00430000
    19  C          0.33694000       0.72240110       0.11132800
    20  C          0.66306000       0.27759890       0.88867200
    21  C          0.24014000       0.65486120       0.18856800
    22  C          0.75986000       0.34513880       0.81143200
    23  H          0.10310000       0.68690000       0.22510000
    24  H          0.89690000       0.31310000       0.77490000
    25  C          0.80074000       0.31564120       0.15824800
    26  C          0.19926000       0.68435880       0.84175200
    27  O          0.94833000       0.34788900       0.09077700
    28  O          0.05167000       0.65211100       0.90922300
    29  C          0.82494000       0.19521120       0.21117800
    30  C          0.17506000       0.80478880       0.78882200
    31  H          0.59170000       0.17230000       0.23280000
    32  H          0.40830000       0.82770000       0.76720000
    33  H          0.96640000       0.18930000       0.25900000
    34  H          0.03360000       0.81070000       0.74100000
    35  C         -0.01766000       0.11584130       0.16372100
    36  C          0.01766000       0.88415870       0.83627900
    37  H         -0.00740000       0.03940000       0.20060000
    38  H          0.00740000       0.96060000       0.79940000
    39  H          0.21510000       0.13720000       0.14310000
    40  H          0.78490000       0.86280000       0.85690000
    41  H          0.84030000       0.11990000       0.11710000
    42  H          0.15970000       0.88010000       0.88290000
    43  Cl         0.62554900      -0.00186300       0.60965200
    44  Cl         0.37445100       0.00186300       0.39034800
    45  Cl         0.35689100       0.15548300       0.71893200
    46  Cl         0.64310900       0.84451700       0.28106800
    47  C          0.87837000       0.29998110       0.46891800
    48  C          0.12163000       0.70001890       0.53108200
    49  C          0.84226000       0.18508110       0.49832800
    50  C          0.15774000       0.81491890       0.50167200
    51  H          0.93080000       0.13770000       0.46620000
    52  H          0.06920000       0.86230000       0.53380000
    53  C          0.67647000       0.14030110       0.57470800
    54  C          0.32353000       0.85969890       0.42529200
    55  C          0.55157000       0.21035120       0.62235800
    56  C          0.44843000       0.78964880       0.37764200
    57  C          0.58566000       0.32488120       0.59285800
    58  C          0.41434000       0.67511880       0.40714200
    59  H          0.49900000       0.37230000       0.62510000
    60  H          0.50100000       0.62770000       0.37490000
    61  C          0.74716000       0.36967110       0.51600800
    62  C          0.25284000       0.63032890       0.48399200
    63  H          0.76840000       0.44800000       0.49540000
    64  H          0.23160000       0.55200000       0.50460000
    65  C          0.06324000       0.34613110       0.38731800
    66  C          0.93676000       0.65386890       0.61268200
    67  O          0.04223000       0.45605900       0.36010700
    68  O          0.95777000       0.54394100       0.63989300
    69  H          0.14950000       0.47821700       0.31021400
    70  H          0.85050000       0.52178300       0.68978600
    71  O          0.22003000       0.28613900       0.34995600
    72  O          0.77997000       0.71386100       0.65004400
