data_LADCIE
_symmetry_space_group_name_H-M    'P1'
_symmetry_Int_Tables_number       1
loop_
_symmetry_equiv_pos_site_id
_symmetry_equiv_pos_as_xyz
1 x,y,z
_cell_length_a                   4.83333
_cell_length_b                   9.59235
_cell_length_c                   23.790112
_cell_angle_alpha                90.0
_cell_angle_beta                 90.9612
_cell_angle_gamma                90.0
loop_
_atom_site_label
_atom_site_type_symbol
_atom_site_fract_x
_atom_site_fract_y
_atom_site_fract_z
     1  Br         0.77917400       0.85926381       0.41764870
     2  Br         0.72082600       0.35926381       0.08235130
     3  Br         0.22082600       0.14073619       0.58235130
     4  Br         0.27917400       0.64073619       0.91764870
     5  N          0.31563000       0.21417150       0.40596600
     6  N          0.18437000       0.71417150       0.09403400
     7  N          0.68437000       0.78582850       0.59403400
     8  N          0.81563000       0.28582850       0.90596600
     9  C          0.41894000       0.09027180       0.42056700
    10  C          0.08106000       0.59027180       0.07943300
    11  C          0.58106000       0.90972820       0.57943300
    12  C          0.91894000       0.40972820       0.92056700
    13  H          0.34490000       0.04330000       0.45210000
    14  H          0.15510000       0.54330000       0.04790000
    15  H          0.65510000       0.95670000       0.54790000
    16  H          0.84490000       0.45670000       0.95210000
    17  C          0.62844000       0.02848170       0.39155700
    18  C          0.87156000       0.52848170       0.10844300
    19  C          0.37156000       0.97151830       0.60844300
    20  C          0.12844000       0.47151830       0.89155700
    21  C          0.72984000       0.09358190       0.34437700
    22  C          0.77016000       0.59358190       0.15562300
    23  C          0.27016000       0.90641810       0.65562300
    24  C          0.22984000       0.40641810       0.84437700
    25  H          0.86950000       0.05040000       0.32280000
    26  H          0.63050000       0.55040000       0.17720000
    27  H          0.13050000       0.94960000       0.67720000
    28  H          0.36950000       0.44960000       0.82280000
    29  C          0.62624000       0.22124180       0.32915700
    30  C          0.87376000       0.72124180       0.17084300
    31  C          0.37376000       0.77875820       0.67084300
    32  C          0.12624000       0.27875820       0.82915700
    33  H          0.69360000       0.26830000       0.29700000
    34  H          0.80640000       0.76830000       0.20300000
    35  H          0.30640000       0.73170000       0.70300000
    36  H          0.19360000       0.23170000       0.79700000
    37  C          0.42023000       0.28084170       0.36164700
    38  C          0.07977000       0.78084170       0.13835300
    39  C          0.57977000       0.71915830       0.63835300
    40  C          0.92023000       0.21915830       0.86164700
    41  N          0.30583000       0.41018160       0.35190600
    42  N          0.19417000       0.91018160       0.14809400
    43  N          0.69417000       0.58981840       0.64809400
    44  N          0.80583000       0.08981840       0.85190600
    45  H          0.18640000       0.42620000       0.37158000
    46  H          0.31360000       0.92620000       0.12842000
    47  H          0.81360000       0.57380000       0.62842000
    48  H          0.68640000       0.07380000       0.87158000
    49  C          0.39814000       0.51260180       0.31657700
    50  C          0.10186000       0.01260180       0.18342300
    51  C          0.60186000       0.48739820       0.68342300
    52  C          0.89814000      -0.01260180       0.81657700
    53  O          0.58903000       0.49682130       0.28463500
    54  O          0.91097000      -0.00317870       0.21536500
    55  O          0.41097000       0.50317870       0.71536500
    56  O          0.08903000       0.00317870       0.78463500
    57  C          0.23654000       0.64551180       0.32132800
    58  C          0.26346000       0.14551180       0.17867200
    59  C          0.76346000       0.35448820       0.67867200
    60  C          0.73654000       0.85448820       0.82132800
    61  H          0.23210000       0.67390000       0.36130000
    62  H          0.26790000       0.17390000       0.13870000
    63  H          0.76790000       0.32610000       0.63870000
    64  H          0.73210000       0.82610000       0.86130000
    65  H          0.04350000       0.62850000       0.30850000
    66  H          0.45650000       0.12850000       0.19150000
    67  H          0.95650000       0.37150000       0.69150000
    68  H          0.54350000       0.87150000       0.80850000
    69  C          0.35654000       0.76276190       0.28721800
    70  C          0.14346000       0.26276190       0.21278200
    71  C          0.64346000       0.23723810       0.71278200
    72  C          0.85654000       0.73723810       0.78721800
    73  H          0.25070000       0.84830000       0.29370000
    74  H          0.24930000       0.34830000       0.20630000
    75  H          0.74930000       0.15170000       0.70630000
    76  H          0.75070000       0.65170000       0.79370000
    77  H          0.34660000       0.73860000       0.24720000
    78  H          0.15340000       0.23860000       0.25280000
    79  H          0.65340000       0.26140000       0.75280000
    80  H          0.84660000       0.76140000       0.74720000
    81  H          0.55010000       0.77760000       0.29860000
    82  H          0.94990000       0.27760000       0.20140000
    83  H          0.44990000       0.22240000       0.70140000
    84  H          0.05010000       0.72240000       0.79860000
    85  C          0.79857000       0.40907180       0.46368700
    86  C          0.70143000       0.90907180       0.03631300
    87  C          0.20143000       0.59092820       0.53631300
    88  C          0.29857000       0.09092820       0.96368700
    89  O          0.90517000       0.28584130       0.47280500
    90  O          0.59483000       0.78584130       0.02719500
    91  O          0.09483000       0.71415870       0.52719500
    92  O          0.40517000       0.21415870       0.97280500
    93  H          0.01550000       0.27620000       0.45259000
    94  H          0.48450000       0.77620000       0.04741000
    95  H         -0.01550000       0.72380000       0.54741000
    96  H          0.51550000       0.22380000       0.95259000
    97  O          0.87527000       0.48995130       0.42785500
    98  O          0.62473000      -0.01004870       0.07214500
    99  O          0.12473000       0.51004870       0.57214500
   100  O          0.37527000       0.01004870       0.92785500
   101  C          0.57057000       0.44166170       0.50215700
   102  C          0.92943000       0.94166170      -0.00215700
   103  C          0.42943000       0.55833830       0.49784300
   104  C          0.07057000       0.05833830       0.00215700
   105  H          0.52510000       0.37670000       0.53070000
   106  H         -0.02510000       0.87670000       0.96930000
   107  H          0.47490000       0.62330000       0.46930000
   108  H          0.02510000       0.12330000       0.03070000
