data_LADDIF
_symmetry_space_group_name_H-M    'P1'
_symmetry_Int_Tables_number       1
loop_
_symmetry_equiv_pos_site_id
_symmetry_equiv_pos_as_xyz
1 x,y,z
_cell_length_a                   4.98783
_cell_length_b                   9.99317
_cell_length_c                   11.46258
_cell_angle_alpha                113.2505
_cell_angle_beta                 92.1035
_cell_angle_gamma                93.3525
loop_
_atom_site_label
_atom_site_type_symbol
_atom_site_fract_x
_atom_site_fract_y
_atom_site_fract_z
     1  Br         0.78851900       0.74834500       0.19608400
     2  Br         0.21148100       0.25165500       0.80391600
     3  N          0.33776000       0.40223000       0.21533000
     4  N          0.66224000       0.59777000       0.78467000
     5  C          0.47227000       0.37434000       0.30524000
     6  C          0.52773000       0.62566000       0.69476000
     7  N          0.35646000       0.25733000       0.32703000
     8  N          0.64354000       0.74267000       0.67297000
     9  H          0.22580000       0.21840000       0.28740000
    10  H          0.77420000       0.78160000       0.71260000
    11  C          0.70877000       0.45764000       0.37003000
    12  C          0.29123000       0.54236000       0.62997000
    13  H          0.80100000       0.43650000       0.43400000
    14  H          0.19900000       0.56350000       0.56600000
    15  C          0.80407000       0.57044000       0.33893000
    16  C          0.19593000       0.42956000       0.66107000
    17  H          0.96330000       0.62880000       0.38150000
    18  H          0.03670000       0.37120000       0.61850000
    19  C          0.66667000       0.59804000       0.24544000
    20  C          0.33333000       0.40196000       0.75456000
    21  C          0.43157000       0.51174000       0.18594000
    22  C          0.56843000       0.48826000       0.81406000
    23  H          0.33510000       0.53160000       0.12230000
    24  H          0.66490000       0.46840000       0.87770000
    25  C          0.45237000       0.19384000       0.40504000
    26  C          0.54763000       0.80616000       0.59496000
    27  O          0.66555000       0.23463000       0.46913000
    28  O          0.33445000       0.76537000       0.53087000
    29  C          0.27238000       0.06824000       0.40444000
    30  C          0.72762000       0.93176000       0.59556000
    31  H          0.26240000       0.07420000       0.49150000
    32  H          0.73760000       0.92580000       0.50850000
    33  H          0.34490000       0.97610000       0.35140000
    34  H          0.65510000       0.02390000       0.64860000
    35  H          0.09180000       0.07210000       0.36970000
    36  H          0.90820000       0.92790000       0.63030000
    37  C          0.79973000       0.14214000       0.07903000
    38  C          0.20027000       0.85786000       0.92097000
    39  O          0.88915000       0.26113000       0.06563000
    40  O          0.11085000       0.73887000       0.93437000
    41  H          0.00880000       0.29550000       0.10940000
    42  H         -0.00880000       0.70450000       0.89060000
    43  O          0.90145000       0.09723000       0.15302000
    44  O          0.09855000       0.90277000       0.84698000
    45  C          0.55353000       0.06724000      -0.00833000
    46  C          0.44647000       0.93276000       0.00833000
    47  H          0.41150000       0.13640000       0.00870000
    48  H          0.58850000       0.86360000      -0.00870000
    49  H          0.59970000       0.03990000       0.90230000
    50  H          0.40030000       0.96010000       0.09770000
