data_LAGFOQ
_symmetry_space_group_name_H-M    'P1'
_symmetry_Int_Tables_number       1
loop_
_symmetry_equiv_pos_site_id
_symmetry_equiv_pos_as_xyz
1 x,y,z
_cell_length_a                   9.464801
_cell_length_b                   13.15233
_cell_length_c                   18.75393
_cell_angle_alpha                104.69001
_cell_angle_beta                 94.8882
_cell_angle_gamma                105.8732
loop_
_atom_site_label
_atom_site_type_symbol
_atom_site_fract_x
_atom_site_fract_y
_atom_site_fract_z
     1  I          0.36357300       0.46471300       0.85222616
     2  I          0.63642700       0.53528700       0.14777384
     3  I          0.40231400       0.39105300       0.47174317
     4  I          0.59768600       0.60894700       0.52825683
     5  I          0.15588300       0.13252200       0.40431816
     6  I          0.84411700       0.86747800       0.59568184
     7  P          0.85786110       0.63437900       0.77708600
     8  P          0.14213890       0.36562100       0.22291400
     9  P          0.50817110       0.19979900       0.64886600
    10  P          0.49182890       0.80020100       0.35113400
    11  F          0.91363000       0.87142000       0.94398150
    12  F          0.08637000       0.12858000       0.05601850
    13  F          0.71064000       0.91783000       0.02826150
    14  F          0.28936000       0.08217000       0.97173850
    15  F          0.42303000       0.87282000       0.96376170
    16  F          0.57697000       0.12718000       0.03623830
    17  F          0.34333000       0.78482000       0.81318160
    18  F          0.65667000       0.21518000       0.18681840
    19  F          0.54533000       0.73582000       0.72846140
    20  F          0.45467000       0.26418000       0.27153860
    21  F          0.29783000       0.97318000       0.70744140
    22  F          0.70217000       0.02682000       0.29255860
    23  F          0.15753000       0.98168000       0.82506150
    24  F          0.84247000       0.01832000       0.17493850
    25  F          0.00873000       0.13203000       0.86273170
    26  F         -0.00873000       0.86797000       0.13726830
    27  F         -0.00883000       0.26713000       0.77526170
    28  F          0.00883000       0.73287000       0.22473830
    29  F          0.14063000       0.26222000       0.65898150
    30  F          0.85937000       0.73778000       0.34101850
    31  C         -0.01446000       0.60463000       0.71522000
    32  C          0.01446000       0.39537000       0.28478000
    33  C          0.97255000       0.63003000       0.64802000
    34  C          0.02745000       0.36997000       0.35198000
    35  H          0.90590000       0.66920000       0.63820000
    36  H          0.09410000       0.33080000       0.36180000
    37  C          0.05775000       0.59784000       0.59533000
    38  C          0.94225000       0.40216000       0.40467000
    39  H          0.04810000       0.61370000       0.54880000
    40  H          0.95190000       0.38630000       0.45120000
    41  C          0.15655000       0.54254000       0.60993000
    42  C          0.84345000       0.45746000       0.39007000
    43  H          0.21560000       0.52120000       0.57380000
    44  H          0.78440000       0.47880000       0.42620000
    45  C          0.16875000       0.51864000       0.67723000
    46  C          0.83125000       0.48136000       0.32277000
    47  H          0.23810000       0.48180000       0.68730000
    48  H          0.76190000       0.51820000       0.31270000
    49  C          0.08355000       0.54664000       0.72952000
    50  C          0.91645000       0.45336000       0.27048000
    51  H          0.09060000       0.52710000       0.77480000
    52  H          0.90940000       0.47290000       0.22520000
    53  C          0.91324000       0.62553000       0.86812000
    54  C          0.08676000       0.37447000       0.13188000
    55  C          0.80555000       0.58084000       0.90743000
    56  C          0.19445000       0.41916000       0.09257000
    57  H          0.70400000       0.54830000       0.88450000
    58  H          0.29600000       0.45170000       0.11550000
    59  C          0.85046000       0.58504000       0.98093000
    60  C          0.14954000       0.41496000       0.01907000
    61  H          0.77880000       0.55470000       0.00850000
    62  H          0.22120000       0.44530000       0.99150000
    63  C         -0.00254000       0.63264000       0.01423000
    64  C          0.00254000       0.36736000       0.98577000
    65  H          0.02600000       0.63630000       0.06480000
    66  H          0.97400000       0.36370000       0.93520000
    67  C          0.10375000       0.67484000       0.97443000
    68  C          0.89625000       0.32516000       0.02557000
    69  H          0.20560000       0.70500000      -0.00300000
    70  H          0.79440000       0.29500000       0.00300000
    71  C          0.06155000       0.67294000       0.90223000
    72  C          0.93845000       0.32706000       0.09777000
    73  H          0.13380000       0.70420000       0.87530000
    74  H          0.86620000       0.29580000       0.12470000
    75  C          0.84815000       0.77343000       0.78612000
    76  C          0.15185000       0.22657000       0.21388000
    77  H          0.94730000       0.82740000       0.80870000
    78  H          0.05270000       0.17260000       0.19130000
    79  H          0.82130000       0.78060000       0.73580000
    80  H          0.17870000       0.21940000       0.26420000
    81  C          0.73445000       0.79963000       0.83392000
    82  C          0.26555000       0.20037000       0.16608000
    83  C          0.77135000       0.84704000       0.91093000
    84  C          0.22865000       0.15296000       0.08907000
    85  C          0.66786000       0.87154000       0.95403000
    86  C          0.33214000       0.12846000       0.04597000
    87  C          0.52365000       0.84904000       0.92133000
    88  C          0.47635000       0.15096000       0.07867000
    89  C          0.48425000       0.80324000       0.84513000
    90  C          0.51575000       0.19676000       0.15487000
    91  C          0.58805000       0.77973000       0.80332000
    92  C          0.41195000       0.22027000       0.19668000
    93  C          0.67604000       0.54043000       0.73472000
    94  C          0.32396000       0.45957000       0.26528000
    95  H          0.60540000       0.55030000       0.77010000
    96  H          0.39460000       0.44970000       0.22990000
    97  H          0.64130000       0.55810000       0.68940000
    98  H          0.35870000       0.44190000       0.31060000
    99  C          0.67514000       0.41953000       0.71342000
   100  C          0.32486000       0.58047000       0.28658000
   101  H          0.71210000       0.40170000       0.75830000
   102  H          0.28790000       0.59830000       0.24170000
   103  H          0.74220000       0.40820000       0.67640000
   104  H          0.25780000       0.59180000       0.32360000
   105  C          0.51624000       0.34253000       0.67992000
   106  C          0.48376000       0.65747000       0.32008000
   107  H          0.47760000       0.36400000       0.63710000
   108  H          0.52240000       0.63600000       0.36290000
   109  H          0.45090000       0.35180000       0.71800000
   110  H          0.54910000       0.64820000       0.28200000
   111  C          0.61274000       0.18163000       0.57442000
   112  C          0.38726000       0.81837000       0.42558000
   113  C          0.76695000       0.20334000       0.58912000
   114  C          0.23305000       0.79666000       0.41088000
   115  H          0.81620000       0.22070000       0.63890000
   116  H          0.18380000       0.77930000       0.36110000
   117  C          0.84785000       0.19954000       0.53102000
   118  C          0.15215000       0.80046000       0.46898000
   119  H          0.95220000       0.21220000       0.54070000
   120  H          0.04780000       0.78780000       0.45930000
   121  C          0.77645000       0.17704000       0.45852000
   122  C          0.22355000       0.82296000       0.54148000
   123  H          0.83240000       0.17520000       0.41870000
   124  H          0.16760000       0.82480000       0.58130000
   125  C          0.62465000       0.15714000       0.44382000
   126  C          0.37535000       0.84286000       0.55618000
   127  H          0.57660000       0.14280000       0.39410000
   128  H          0.42340000       0.85720000       0.60590000
   129  C          0.54194000       0.15813000       0.50112000
   130  C          0.45806000       0.84187000       0.49888000
   131  H          0.43700000       0.14270000       0.49060000
   132  H          0.56300000       0.85730000       0.50940000
   133  C          0.58014000       0.15893000       0.72412000
   134  C          0.41986000       0.84107000       0.27588000
   135  C          0.64534000       0.07433000       0.71042000
   136  C          0.35466000       0.92567000       0.28958000
   137  H          0.66010000       0.04320000       0.66110000
   138  H          0.33990000       0.95680000       0.33890000
   139  C          0.68865000       0.03534000       0.76753000
   140  C          0.31135000       0.96466000       0.23247000
   141  H          0.73410000       0.97820000       0.75790000
   142  H          0.26590000       0.02180000       0.24210000
   143  C          0.66505000       0.08014000       0.83903000
   144  C          0.33495000       0.91986000       0.16097000
   145  H          0.69430000       0.05320000       0.87850000
   146  H          0.30570000       0.94680000       0.12150000
   147  C          0.59915000       0.16414000       0.85372000
   148  C          0.40085000       0.83586000       0.14628000
   149  H          0.58280000       0.19370000       0.90290000
   150  H          0.41720000       0.80630000       0.09710000
   151  C          0.55734000       0.20433000       0.79662000
   152  C          0.44266000       0.79567000       0.20338000
   153  H          0.51350000       0.26230000       0.80650000
   154  H          0.48650000       0.73770000       0.19350000
   155  C          0.31364000       0.11853000       0.61602000
   156  C          0.68636000       0.88147000       0.38398000
   157  H          0.26890000       0.14850000       0.57960000
   158  H          0.73110000       0.85150000       0.42040000
   159  H          0.30710000       0.04130000       0.59020000
   160  H          0.69290000       0.95870000       0.40980000
   161  C          0.22744000       0.12044000       0.68062000
   162  C          0.77256000       0.87956000       0.31938000
   163  C          0.22615000       0.04824000       0.72392000
   164  C          0.77385000       0.95176000       0.27608000
   165  C          0.15395000       0.05214000       0.78463000
   166  C          0.84605000       0.94786000       0.21537000
   167  C          0.07745000       0.12685000       0.80273000
   168  C          0.92255000       0.87315000       0.19727000
   169  C          0.07015000       0.19624000       0.76023000
   170  C          0.92985000       0.80376000       0.23977000
   171  C          0.14625000       0.19224000       0.69943000
   172  C          0.85375000       0.80776000       0.30057000
   173  O          0.51946000       0.68074000       0.02002000
   174  O          0.48054000       0.31926000       0.97998000
   175  H          0.47670000       0.62940000       0.98020000
   176  H          0.52330000       0.37060000       0.01980000
   177  H          0.55280000       0.65060000       0.05130000
   178  H          0.44720000       0.34940000       0.94870000
