data_LAGYOI
_symmetry_space_group_name_H-M    'P1'
_symmetry_Int_Tables_number       1
loop_
_symmetry_equiv_pos_site_id
_symmetry_equiv_pos_as_xyz
1 x,y,z
_cell_length_a                   9.80235
_cell_length_b                   14.74037
_cell_length_c                   19.44499
_cell_angle_alpha                90.0
_cell_angle_beta                 91.49101
_cell_angle_gamma                90.0
loop_
_atom_site_label
_atom_site_type_symbol
_atom_site_fract_x
_atom_site_fract_y
_atom_site_fract_z
     1  I          0.27612013       0.00057580       0.14188460
     2  I          0.22387987       0.50057580       0.35811540
     3  I          0.72387987      -0.00057580       0.85811540
     4  I          0.77612013       0.49942420       0.64188460
     5  N          0.95566850       0.92951100       0.04263800
     6  N          0.54433150       0.42951100       0.45736200
     7  N          0.04433150       0.07048900       0.95736200
     8  N          0.45566850       0.57048900       0.54263800
     9  C          0.95238000       0.01589120       0.06232900
    10  C          0.54762000       0.51589120       0.43767100
    11  C          0.04762000       0.98410880       0.93767100
    12  C          0.45238000       0.48410880       0.56232900
    13  C          0.00402000       0.91392130       0.98025100
    14  C          0.49598000       0.41392130       0.51974900
    15  C         -0.00402000       0.08607870       0.01974900
    16  C          0.50402000       0.58607870       0.48025100
    17  C          0.89938000       0.03477150       0.12977100
    18  C          0.60062000       0.53477150       0.37022900
    19  C          0.10062000       0.96522850       0.87022900
    20  C          0.39938000       0.46522850       0.62977100
    21  C          0.01072000       0.82029140       0.95894900
    22  C          0.48928000       0.32029140       0.54105100
    23  C         -0.01072000       0.17970860       0.04105100
    24  C          0.51072000       0.67970860       0.45894900
    25  N          0.85398000       0.05052150       0.18164900
    26  N          0.64602000       0.55052150       0.31835100
    27  N          0.14602000       0.94947850       0.81835100
    28  N          0.35398000       0.44947850       0.68164900
    29  N          0.01982000       0.74608130       0.94273890
    30  N          0.48018000       0.24608130       0.55726110
    31  N          0.98018000       0.25391870       0.05726110
    32  N          0.51982000       0.75391870       0.44273890
    33  N          0.37732000       0.00210110       0.96037200
    34  N          0.12268000       0.50210110       0.53962800
    35  N          0.62268000      -0.00210110       0.03962800
    36  N          0.87732000       0.49789890       0.46037200
    37  C          0.42712000       0.07523140       0.99228100
    38  C          0.07288000       0.57523140       0.50771900
    39  C          0.57288000       0.92476860       0.00771900
    40  C          0.92712000       0.42476860       0.49228100
    41  C          0.45052000       0.92697140       0.96870100
    42  C          0.04948000       0.42697140       0.53129900
    43  C          0.54948000       0.07302860       0.03129900
    44  C          0.95052000       0.57302860       0.46870100
    45  C          0.34962000       0.15808150       0.98556900
    46  C          0.15038000       0.65808150       0.51443100
    47  C          0.65038000       0.84191850       0.01443100
    48  C          0.84962000       0.34191850       0.48556900
    49  C          0.39912000       0.84589150       0.93560100
    50  C          0.10088000       0.34589150       0.56439900
    51  C          0.60088000       0.15410850       0.06439900
    52  C          0.89912000       0.65410850       0.43560100
    53  N          0.29052000       0.22433130       0.97951100
    54  N          0.20948000       0.72433130       0.52048900
    55  N          0.70948000       0.77566870       0.02048900
    56  N          0.79052000       0.27566870       0.47951100
    57  N          0.35982000       0.78063140       0.91075100
    58  N          0.14018000       0.28063140       0.58924900
    59  N          0.64018000       0.21936860       0.08924900
    60  N          0.85982000       0.71936860       0.41075100
    61  N         -0.00122000       0.28985100       0.80618200
    62  N          0.50122000       0.78985100       0.69381800
    63  N          0.00122000       0.71014900       0.19381800
    64  N          0.49878000       0.21014900       0.30618200
    65  C          0.04682000       0.38758120       0.81247900
    66  C          0.45318000       0.88758120       0.68752100
    67  C          0.95318000       0.61241880       0.18752100
    68  C          0.54682000       0.11241880       0.31247900
    69  H          0.11472000       0.39897120       0.77664900
    70  H          0.38528000       0.89897120       0.72335100
    71  H          0.88528000       0.60102880       0.22335100
    72  H          0.61472000       0.10102880       0.27664900
    73  H          0.96798000       0.42800120       0.80285900
    74  H          0.53202000       0.92800120       0.69714100
    75  H          0.03202000       0.57199880       0.19714100
    76  H          0.46798000       0.07199880       0.30285900
    77  C          0.10973000       0.41314140       0.88143880
    78  C          0.39027000       0.91314140       0.61856120
    79  C          0.89027000       0.58685860       0.11856120
    80  C          0.60973000       0.08685860       0.38143880
    81  H          0.18223000       0.36915140       0.89440880
    82  H          0.31777000       0.86915140       0.60559120
    83  H          0.81777000       0.63084860       0.10559120
    84  H          0.68223000       0.13084860       0.39440880
    85  H          0.03933000       0.41119140       0.91698880
    86  H          0.46067000       0.91119140       0.58301120
    87  H          0.96067000       0.58880860       0.08301120
    88  H          0.53933000       0.08880860       0.41698880
    89  C          0.17014000       0.50827150       0.87788000
    90  C          0.32986000       0.00827150       0.62212000
    91  C          0.82986000       0.49172850       0.12212000
    92  C          0.67014000      -0.00827150       0.37788000
    93  H          0.23924000       0.50968150       0.84158000
    94  H          0.26076000       0.00968150       0.65842000
    95  H          0.76076000       0.49031850       0.15842000
    96  H          0.73924000       0.99031850       0.34158000
    97  H          0.09694000       0.55157150       0.86458000
    98  H          0.40306000       0.05157150       0.63542000
    99  H          0.90306000       0.44842850       0.13542000
   100  H          0.59694000       0.94842850       0.36458000
   101  C          0.23474000       0.53812000       0.94388000
   102  C          0.26526000       0.03812000       0.55612000
   103  C          0.76526000       0.46188000       0.05612000
   104  C          0.73474000       0.96188000       0.44388000
   105  H          0.26672700       0.60087000       0.93935000
   106  H          0.23327300       0.10087000       0.56065000
   107  H          0.73327300       0.39913000       0.06065000
   108  H          0.76672700       0.89913000       0.43935000
   109  H          0.31231700       0.49861200       0.95533000
   110  H          0.18768300      -0.00138800       0.54467000
   111  H          0.68768300       0.50138800       0.04467000
   112  H          0.81231700       0.00138800       0.45533000
   113  H          0.16798000       0.53471800       0.98037000
   114  H          0.33202000       0.03471800       0.51963000
   115  H          0.83202000       0.46528200       0.01963000
   116  H          0.66798000       0.96528200       0.48037000
   117  C          0.11682000       0.22434130       0.81772100
   118  C          0.38318000       0.72434130       0.68227900
   119  C          0.88318000       0.77565870       0.18227900
   120  C          0.61682000       0.27565870       0.31772100
   121  H          0.14872000       0.22913130       0.86631100
   122  H          0.35128000       0.72913130       0.63368900
   123  H          0.85128000       0.77086870       0.13368900
   124  H          0.64872000       0.27086870       0.36631100
   125  H          0.08252000       0.16181130       0.81046100
   126  H          0.41748000       0.66181130       0.68953900
   127  H          0.91748000       0.83818870       0.18953900
   128  H          0.58252000       0.33818870       0.31046100
   129  C          0.23742000       0.23880140       0.77223880
   130  C          0.26258000       0.73880140       0.72776120
   131  C          0.76258000       0.76119860       0.22776120
   132  C          0.73742000       0.26119860       0.27223880
   133  H          0.27262000       0.30123140       0.77883880
   134  H          0.22738000       0.80123140       0.72116120
   135  H          0.72738000       0.69876860       0.22116120
   136  H          0.77262000       0.19876860       0.27883880
   137  H          0.20752000       0.23225140       0.72345880
   138  H          0.29248000       0.73225140       0.77654120
   139  H          0.79248000       0.76774860       0.27654120
   140  H          0.70752000       0.26774860       0.22345880
   141  C          0.35072000       0.17152000       0.78828890
   142  C          0.14928000       0.67152000       0.71171110
   143  C          0.64928000       0.82848000       0.21171110
   144  C          0.85072000       0.32848000       0.28828890
   145  H          0.37592000       0.17512000       0.83784890
   146  H          0.12408000       0.67512000       0.66215110
   147  H          0.62408000       0.82488000       0.16215110
   148  H          0.87592000       0.32488000       0.33784890
   149  H          0.31712000       0.10932000       0.77865890
   150  H          0.18288000       0.60932000       0.72134110
   151  H          0.68288000       0.89068000       0.22134110
   152  H          0.81712000       0.39068000       0.27865890
   153  C          0.47602000       0.18922000       0.74651870
   154  C          0.02398000       0.68922000       0.75348130
   155  C          0.52398000       0.81078000       0.25348130
   156  C          0.97602000       0.31078000       0.24651870
   157  H          0.54578000       0.14348000       0.75763000
   158  H          0.95422000       0.64348000       0.74237000
   159  H          0.45422000       0.85652000       0.24237000
   160  H          0.04578000       0.35652000       0.25763000
   161  H          0.51201100       0.24965000       0.75733000
   162  H         -0.01201100       0.74965000       0.74267000
   163  H          0.48798900       0.75035000       0.24267000
   164  H          0.01201100       0.25035000       0.25733000
   165  H          0.45155000       0.18591300       0.69738870
   166  H          0.04845000       0.68591300       0.80261130
   167  H          0.54845000       0.81408700       0.30261130
   168  H          0.95155000       0.31408700       0.19738870
   169  C          0.89368000       0.26816130       0.85983100
   170  C          0.60632000       0.76816130       0.64016900
   171  C          0.10632000       0.73183870       0.14016900
   172  C          0.39368000       0.23183870       0.35983100
   173  H          0.86358000       0.20456130       0.85331100
   174  H          0.63642000       0.70456130       0.64668900
   175  H          0.13642000       0.79543870       0.14668900
   176  H          0.36358000       0.29543870       0.35331100
   177  H          0.93838000       0.27248130       0.90596100
   178  H          0.56162000       0.77248130       0.59403900
   179  H          0.06162000       0.72751870       0.09403900
   180  H          0.43838000       0.22751870       0.40596100
   181  C          0.76908000       0.32852000       0.85846880
   182  C          0.73092000       0.82852000       0.64153120
   183  C          0.23092000       0.67148000       0.14153120
   184  C          0.26908000       0.17148000       0.35846880
   185  H          0.72598000       0.32732000       0.81186880
   186  H          0.77402000       0.82732000       0.68813120
   187  H          0.27402000       0.67268000       0.18813120
   188  H          0.22598000       0.17268000       0.31186880
   189  H          0.79698000       0.39172000       0.86871880
   190  H          0.70302000       0.89172000       0.63128120
   191  H          0.20302000       0.60828000       0.13128120
   192  H          0.29698000       0.10828000       0.36871880
   193  C          0.66647000       0.29752000       0.91068860
   194  C          0.83353000       0.79752000       0.58931140
   195  C          0.33353000       0.70248000       0.08931140
   196  C          0.16647000       0.20248000       0.41068860
   197  H          0.63507000       0.23552000       0.89878860
   198  H          0.86493000       0.73552000       0.60121140
   199  H          0.36493000       0.76448000       0.10121140
   200  H          0.13507000       0.26448000       0.39878860
   201  H          0.71157000       0.29512000       0.95679860
   202  H          0.78843000       0.79512000       0.54320140
   203  H          0.28843000       0.70488000       0.04320140
   204  H          0.21157000       0.20488000       0.45679860
   205  C          0.54467000       0.35972000       0.91318000
   206  C          0.95533000       0.85972000       0.58682000
   207  C          0.45533000       0.64028000       0.08682000
   208  C          0.04467000       0.14028000       0.41318000
   209  H          0.47868900       0.33539000       0.94521000
   210  H          0.02131100       0.83539000       0.55479000
   211  H          0.52131100       0.66461000       0.05479000
   212  H          0.97868900       0.16461000       0.44521000
   213  H          0.50188500       0.36431300       0.86717000
   214  H         -0.00188500       0.86431300       0.63283000
   215  H          0.49811500       0.63568700       0.13283000
   216  H          0.00188500       0.13568700       0.36717000
   217  H          0.57425000       0.42005000       0.92858800
   218  H          0.92575000       0.92005000       0.57141200
   219  H          0.42575000       0.57995000       0.07141200
   220  H          0.07425000       0.07995000       0.42858800
   221  C          0.93788000       0.27975130       0.73390100
   222  C          0.56212000       0.77975130       0.76609900
   223  C          0.06212000       0.72024870       0.26609900
   224  C          0.43788000       0.22024870       0.23390100
   225  H          0.86058000       0.32261130       0.72867100
   226  H          0.63942000       0.82261130       0.77132900
   227  H          0.13942000       0.67738870       0.27132900
   228  H          0.36058000       0.17738870       0.22867100
   229  H          0.00772000       0.29814130       0.70076100
   230  H          0.49228000       0.79814130       0.79923900
   231  H         -0.00772000       0.70185870       0.29923900
   232  H          0.50772000       0.20185870       0.20076100
   233  C          0.88778000       0.18634140       0.71453900
   234  C          0.61222000       0.68634140       0.78546100
   235  C          0.11222000       0.81365860       0.28546100
   236  C          0.38778000       0.31365860       0.21453900
   237  H          0.82978000       0.16228140       0.75126900
   238  H          0.67022000       0.66228140       0.74873100
   239  H          0.17022000       0.83771860       0.24873100
   240  H          0.32978000       0.33771860       0.25126900
   241  H          0.96648000       0.14499140       0.70969900
   242  H          0.53352000       0.64499140       0.79030100
   243  H          0.03352000       0.85500860       0.29030100
   244  H          0.46648000       0.35500860       0.20969900
   245  C          0.80637000       0.19032000       0.64743890
   246  C          0.69363000       0.69032000       0.85256110
   247  C          0.19363000       0.80968000       0.35256110
   248  C          0.30637000       0.30968000       0.14743890
   249  H          0.72707000       0.23092000       0.65317890
   250  H          0.77293000       0.73092000       0.84682110
   251  H          0.27293000       0.76908000       0.34682110
   252  H          0.22707000       0.26908000       0.15317890
   253  H          0.86417000       0.21692000       0.61161890
   254  H          0.63583000       0.71692000       0.88838110
   255  H          0.13583000       0.78308000       0.38838110
   256  H          0.36417000       0.28308000       0.11161890
   257  C          0.75607000       0.09872000       0.62323850
   258  C          0.74393000       0.59872000       0.87676150
   259  C          0.24393000       0.90128000       0.37676150
   260  C          0.25607000       0.40128000       0.12323850
   261  H          0.69888200       0.10622000       0.58144000
   262  H          0.80111800       0.60622000       0.91856000
   263  H          0.30111800       0.89378000       0.41856000
   264  H          0.19888200       0.39378000       0.08144000
   265  H          0.70228200       0.07066000       0.65926000
   266  H          0.79771800       0.57066000       0.84074000
   267  H          0.29771800       0.92934000       0.34074000
   268  H          0.20228200       0.42934000       0.15926000
   269  H          0.83417000       0.05995000       0.61319000
   270  H          0.66583000       0.55995000       0.88681000
   271  H          0.16583000       0.94005000       0.38681000
   272  H          0.33417000       0.44005000       0.11319000
