data_LAHFEJ01
_symmetry_space_group_name_H-M    'P1'
_symmetry_Int_Tables_number       1
loop_
_symmetry_equiv_pos_site_id
_symmetry_equiv_pos_as_xyz
1 x,y,z
_cell_length_a                   6.28824
_cell_length_b                   8.74024
_cell_length_c                   11.07155
_cell_angle_alpha                106.8764
_cell_angle_beta                 102.8395
_cell_angle_gamma                105.1225
loop_
_atom_site_label
_atom_site_type_symbol
_atom_site_fract_x
_atom_site_fract_y
_atom_site_fract_z
     1  I         -0.01627800       0.37836200       0.14292200
     2  I          0.01627800       0.62163800       0.85707800
     3  F          0.55583000       0.70256820      -0.00142160
     4  F          0.44417000       0.29743180       0.00142160
     5  F          0.92212000      -0.01002000       0.11192150
     6  F          0.07788000       0.01002000       0.88807850
     7  C          0.52464000       0.84917000      -0.00172000
     8  C          0.47536000       0.15083000       0.00172000
     9  C          0.71434000      -0.00253000       0.05622000
    10  C          0.28566000       0.00253000       0.94378000
    11  C          0.69484000       0.15213000       0.05892000
    12  C          0.30516000       0.84787000       0.94108000
    13  S          0.35383100       0.60830700       0.58745600
    14  S          0.64616900       0.39169300       0.41254400
    15  N          0.34014000       0.70917000       0.25752000
    16  N          0.65986000       0.29083000       0.74248000
    17  N         -0.00747000       0.28542000       0.46839190
    18  N          0.00747000       0.71458000       0.53160810
    19  C          0.24665000       0.83187000       0.26433000
    20  C          0.75335000       0.16813000       0.73567000
    21  H          0.08536300       0.79972200       0.23342000
    22  H          0.91463700       0.20027800       0.76658000
    23  C          0.37774000       0.00283000       0.31473000
    24  C          0.62226000      -0.00283000       0.68527000
    25  H          0.30559500       0.08359400       0.31742100
    26  H          0.69440500       0.91640600       0.68257900
    27  C          0.61744000       0.05343000       0.36112000
    28  C          0.38256000       0.94657000       0.63888000
    29  C          0.71364000       0.92667000       0.35343000
    30  C          0.28636000       0.07333000       0.64657000
    31  H          0.87425100       0.95472300       0.38305200
    32  H          0.12574900       0.04527700       0.61694800
    33  C          0.56834000       0.75837000       0.30103000
    34  C          0.43166000       0.24163000       0.69897000
    35  H          0.63576300       0.67484800       0.29633900
    36  H          0.36423700       0.32515200       0.70366100
    37  C          0.76724000       0.23373000       0.41602000
    38  C          0.23276000       0.76627000       0.58398000
    39  C          0.07814000       0.45923000       0.51002000
    40  C          0.92186000       0.54077000       0.48998000
