data_LAJYED
_symmetry_space_group_name_H-M    'P1'
_symmetry_Int_Tables_number       1
loop_
_symmetry_equiv_pos_site_id
_symmetry_equiv_pos_as_xyz
1 x,y,z
_cell_length_a                   9.827412
_cell_length_b                   11.898915
_cell_length_c                   13.090116
_cell_angle_alpha                70.6152
_cell_angle_beta                 68.8392
_cell_angle_gamma                87.1562
loop_
_atom_site_label
_atom_site_type_symbol
_atom_site_fract_x
_atom_site_fract_y
_atom_site_fract_z
     1  P          0.78627400       0.19727400       0.18234400
     2  P          0.21372600       0.80272600       0.81765600
     3  P          0.53692400       0.32129400       0.34194400
     4  P          0.46307600       0.67870600       0.65805600
     5  O          0.90639120       0.29401110       0.11536100
     6  O          0.09360880       0.70598890       0.88463900
     7  O          0.46130130       0.29517110       0.46974100
     8  O          0.53869870       0.70482890       0.53025900
     9  O          0.60145150       0.05742120       0.56096110
    10  O          0.39854850       0.94257880       0.43903890
    11  C          0.86045170       0.05301150       0.21756150
    12  C          0.13954830       0.94698850       0.78243850
    13  C         -0.00033810       0.04572160       0.13950160
    14  C          0.00033810       0.95427840       0.86049840
    15  H          0.04810000       0.11360000       0.07360000
    16  H          0.95190000       0.88640000       0.92640000
    17  C          0.06702000       0.93897830       0.15851170
    18  C          0.93298000       0.06102170       0.84148830
    19  H          0.16050000       0.93350000       0.10470000
    20  H          0.83950000       0.06650000       0.89530000
    21  C         -0.00218000       0.84102840       0.25567170
    22  C          0.00218000       0.15897160       0.74432830
    23  H          0.04510000       0.76890000       0.26940000
    24  H          0.95490000       0.23110000       0.73060000
    25  C          0.85982000       0.84735840       0.33337160
    26  C          0.14018000       0.15264160       0.66662840
    27  H          0.81250000       0.77950000       0.39970000
    28  H          0.18750000       0.22050000       0.60030000
    29  C          0.79095190       0.95270840       0.31423150
    30  C          0.20904810       0.04729160       0.68576850
    31  H          0.69600000       0.95660000       0.36710000
    32  H          0.30400000       0.04340000       0.63290000
    33  C          0.67775180       0.19230150       0.09851140
    34  C          0.32224820       0.80769850       0.90148860
    35  C          0.71902000       0.27483170       0.98606850
    36  C          0.28098000       0.72516830       0.01393150
    37  H          0.79990000       0.33190000       0.95740000
    38  H          0.20010000       0.66810000       0.04260000
    39  C          0.64162000       0.27352000       0.91602820
    40  C          0.35838000       0.72648000       0.08397180
    41  H          0.66980000       0.32910000       0.83920000
    42  H          0.33020000       0.67090000       0.16080000
    43  C          0.52353000       0.19082000       0.95871810
    44  C          0.47647000       0.80918000       0.04128190
    45  H          0.47040000       0.19030000       0.91100000
    46  H          0.52960000       0.80970000       0.08900000
    47  C          0.48172000       0.10872000       0.07027190
    48  C          0.51828000       0.89128000       0.92972810
    49  H          0.40020000       0.05230000       0.09860000
    50  H          0.59980000       0.94770000       0.90140000
    51  C          0.55872000       0.10863170       0.14081160
    52  C          0.44128000       0.89136830       0.85918840
    53  H          0.53060000       0.05210000       0.21730000
    54  H          0.46940000       0.94790000       0.78270000
    55  C          0.66771170       0.20688140       0.32326130
    56  C          0.33228830       0.79311860       0.67673870
    57  H          0.60730000       0.12870000       0.36560000
    58  H          0.39270000       0.87130000       0.63440000
    59  C          0.40961170       0.30991150       0.27521140
    60  C          0.59038830       0.69008850       0.72478860
    61  C          0.40850190       0.39317160       0.17189150
    62  C          0.59149810       0.60682840       0.82810850
    63  H          0.48110000       0.45840000       0.13010000
    64  H          0.51890000       0.54160000       0.86990000
    65  C          0.30082000       0.38086190       0.12970170
    66  C          0.69918000       0.61913810       0.87029830
    67  H          0.30010000       0.43810000       0.05920000
    68  H          0.69990000       0.56190000       0.94080000
    69  C          0.19502000       0.28616190       0.18952180
    70  C          0.80498000       0.71383810       0.81047820
    71  H          0.12170000       0.27850000       0.16030000
    72  H          0.87830000       0.72150000       0.83970000
    73  C          0.19592000       0.20188180       0.29275180
    74  C          0.80408000       0.79811820       0.70724820
    75  H          0.12370000       0.13630000       0.33360000
    76  H          0.87630000       0.86370000       0.66640000
    77  C          0.30197190       0.21366160       0.33594160
    78  C          0.69802810       0.78633840       0.66405840
    79  H          0.30190000       0.15650000       0.40670000
    80  H          0.69810000       0.84350000       0.59330000
    81  C          0.62756170       0.47009150       0.27246140
    82  C          0.37243830       0.52990850       0.72753860
    83  C          0.57176190       0.55151160       0.33136150
    84  C          0.42823810       0.44848840       0.66863850
    85  H          0.49110000       0.52630000       0.40330000
    86  H          0.50890000       0.47370000       0.59670000
    87  C          0.63302000       0.66827170       0.28574160
    88  C          0.36698000       0.33172830       0.71425840
    89  H          0.59460000       0.72260000       0.32640000
    90  H          0.40540000       0.27740000       0.67360000
    91  C          0.75052000       0.70551170       0.18063150
    92  C          0.24948000       0.29448830       0.81936850
    93  H          0.79240000       0.78560000       0.14920000
    94  H          0.20760000       0.21440000       0.85080000
    95  C          0.80703190       0.62662160       0.12122150
    96  C          0.19296810       0.37337840       0.87877850
    97  H          0.88770000       0.65260000       0.04930000
    98  H          0.11230000       0.34740000       0.95070000
    99  C          0.74598190       0.50947160       0.16650150
   100  C          0.25401810       0.49052840       0.83349850
   101  H          0.78500000       0.45580000       0.12520000
   102  H          0.21500000       0.54420000       0.87480000
   103  C          0.76302180       0.20940160       0.39433140
   104  C          0.23697820       0.79059840       0.60566860
   105  H          0.85570000       0.17350000       0.36450000
   106  H          0.14430000       0.82650000       0.63550000
   107  H          0.78780000       0.29360000       0.38240000
   108  H          0.21220000       0.70640000       0.61760000
   109  C          0.68862000       0.14282170       0.52387150
   110  C          0.31138000       0.85717830       0.47612850
   111  C          0.73563000       0.18722000       0.60204190
   112  C          0.26437000       0.81278000       0.39795810
   113  H          0.69350000       0.13190000       0.68220000
   114  H          0.30650000       0.86810000       0.31780000
   115  H          0.70130000       0.26660000       0.59860000
   116  H          0.29870000       0.73340000       0.40140000
   117  H          0.84260000       0.19200000       0.57620000
   118  H          0.15740000       0.80800000       0.42380000
   119  C          0.86372000       0.54012000       0.51513000
   120  C          0.13628000       0.45988000       0.48487000
   121  H          0.76900000       0.56810000       0.52570000
   122  H          0.23100000       0.43190000       0.47430000
   123  C          0.94003000       0.51182000       0.41722000
   124  C          0.05997000       0.48818000       0.58278000
   125  H          0.89860000       0.51980000       0.36010000
   126  H          0.10140000       0.48020000       0.63990000
   127  C          0.07673000       0.47182000       0.40272000
   128  C          0.92327000       0.52818000       0.59728000
   129  H          0.13030000       0.45230000       0.33510000
   130  H          0.86970000       0.54770000       0.66490000
