data_LAMHOX
_symmetry_space_group_name_H-M    'P1'
_symmetry_Int_Tables_number       1
loop_
_symmetry_equiv_pos_site_id
_symmetry_equiv_pos_as_xyz
1 x,y,z
_cell_length_a                   4.6661
_cell_length_b                   10.4231
_cell_length_c                   11.7772
_cell_angle_alpha                85.391
_cell_angle_beta                 87.731
_cell_angle_gamma                78.581
loop_
_atom_site_label
_atom_site_type_symbol
_atom_site_fract_x
_atom_site_fract_y
_atom_site_fract_z
     1  S          0.15186170       0.57985700       0.72980700
     2  S          0.84813830       0.42014300       0.27019300
     3  O          0.82416000       0.59352000       0.72272000
     4  O          0.17584000       0.40648000       0.27728000
     5  C          0.29891000       0.45895000       0.63474000
     6  C          0.70109000       0.54105000       0.36526000
     7  C          0.25411000       0.48645000       0.85953000
     8  C          0.74589000       0.51355000       0.14047000
     9  H          0.17990000       0.41240000       0.86340000
    10  H          0.82010000       0.58760000       0.13660000
    11  H          0.24190000       0.50140000       0.56340000
    12  H          0.75810000       0.49860000       0.43660000
    13  H          0.50911000       0.44140000       0.64240000
    14  H          0.49089000       0.55860000       0.35760000
    15  H          0.21980000       0.38840000       0.65230000
    16  H          0.78020000       0.61160000       0.34770000
    17  H          0.17910000       0.54350000       0.91940000
    18  H          0.82090000       0.45650000       0.08060000
    19  H          0.45510000       0.46740000       0.85830000
    20  H          0.54490000       0.53260000       0.14170000
    21  S          0.86778000       0.19348800       0.78896800
    22  S          0.13222000       0.80651200       0.21103200
    23  S          0.34898000       0.82841800       0.51622700
    24  S          0.65102000       0.17158200       0.48377300
    25  S          0.75528000       0.82518800       0.92885700
    26  S          0.24472000       0.17481200       0.07114300
    27  N          0.31774000       0.00292000       0.84232000
    28  N          0.68226000      -0.00292000       0.15768000
    29  N          0.14194000       0.00432000       0.66422000
    30  N          0.85806000      -0.00432000       0.33578000
    31  N          0.51684000       0.83903000       0.72682000
    32  N          0.48316000       0.16097000       0.27318000
    33  C          0.33543000       0.89303000       0.64003000
    34  C          0.66457000       0.10697000       0.35997000
    35  C          0.11684000       0.06313000       0.76453000
    36  C          0.88316000       0.93687000       0.23547000
    37  C          0.52054000       0.89163000       0.82883000
    38  C          0.47946000       0.10837000       0.17117000
    39  H          0.61630000       0.77330000       0.71730000
    40  H          0.38370000       0.22670000       0.28270000
    41  H          0.03520000       0.03940000       0.61630000
    42  H          0.96480000       0.96060000       0.38370000
    43  H          0.30820000       0.03540000       0.90030000
    44  H          0.69180000       0.96460000       0.09970000
