data_LAMNEV
_symmetry_space_group_name_H-M    'P1'
_symmetry_Int_Tables_number       1
loop_
_symmetry_equiv_pos_site_id
_symmetry_equiv_pos_as_xyz
1 x,y,z
_cell_length_a                   8.53102
_cell_length_b                   7.3916019
_cell_length_c                   12.87203
_cell_angle_alpha                90.0
_cell_angle_beta                 95.9442
_cell_angle_gamma                90.0
loop_
_atom_site_label
_atom_site_type_symbol
_atom_site_fract_x
_atom_site_fract_y
_atom_site_fract_z
     1  C          0.96708000       0.19912000       0.37855130
     2  C          0.03292000       0.69912000       0.12144870
     3  C          0.03292000       0.80088000       0.62144870
     4  C          0.96708000       0.30088000       0.87855130
     5  C          0.18202000       0.34482000       0.34739140
     6  C          0.81798000       0.84482000       0.15260860
     7  C          0.81798000       0.65518000       0.65260860
     8  C          0.18202000       0.15518000       0.84739140
     9  N          0.11606170       0.17622000       0.35372120
    10  N          0.88393830       0.67622000       0.14627880
    11  N          0.88393830       0.82378000       0.64627880
    12  N          0.11606170       0.32378000       0.85372120
    13  H          0.16120000       0.07460000       0.34370000
    14  H          0.83880000       0.57460000       0.15630000
    15  H          0.83880000       0.92540000       0.65630000
    16  H          0.16120000       0.42540000       0.84370000
    17  N          0.94590830       0.37472000       0.38689120
    18  N          0.05409170       0.87472000       0.11310880
    19  N          0.05409170       0.62528000       0.61310880
    20  N          0.94590830       0.12528000       0.88689120
    21  H          0.86040000       0.42440000       0.40290000
    22  H          0.13960000       0.92440000       0.09710000
    23  H          0.13960000       0.57560000       0.59710000
    24  H          0.86040000       0.07560000       0.90290000
    25  N          0.08034170       0.46932000       0.36638110
    26  N          0.91965830       0.96932000       0.13361890
    27  N          0.91965830       0.53068000       0.63361890
    28  N          0.08034170       0.03068000       0.86638110
    29  H          0.09350000       0.58470000       0.36620000
    30  H          0.90650000       0.08470000       0.13380000
    31  H          0.90650000       0.41530000       0.63380000
    32  H          0.09350000       0.91530000       0.86620000
    33  N          0.32841180       0.37062000       0.32254130
    34  N          0.67158820       0.87062000       0.17745870
    35  N          0.67158820       0.62938000       0.67745870
    36  N          0.32841180       0.12938000       0.82254130
    37  H          0.36440000       0.47870000       0.31770000
    38  H          0.63560000       0.97870000       0.18230000
    39  H          0.63560000       0.52130000       0.68230000
    40  H          0.36440000       0.02130000       0.81770000
    41  H          0.38680000       0.27930000       0.31140000
    42  H          0.61320000       0.77930000       0.18860000
    43  H          0.61320000       0.72070000       0.68860000
    44  H          0.38680000       0.22070000       0.81140000
    45  N          0.86507810       0.06862000       0.39049130
    46  N          0.13492190       0.56862000       0.10950870
    47  N          0.13492190       0.93138000       0.60950870
    48  N          0.86507810       0.43138000       0.89049130
    49  H          0.77180000       0.09460000       0.40560000
    50  H          0.22820000       0.59460000       0.09440000
    51  H          0.22820000       0.90540000       0.59440000
    52  H          0.77180000       0.40540000       0.90560000
    53  H          0.89180000       0.95750000       0.38310000
    54  H          0.10820000       0.45750000       0.11690000
    55  H          0.10820000       0.04250000       0.61690000
    56  H          0.89180000       0.54250000       0.88310000
    57  F          0.51955130       0.28365160       0.61016100
    58  F          0.48044870       0.78365160       0.88983900
    59  F          0.48044870       0.71634840       0.38983900
    60  F          0.51955130       0.21634840       0.11016100
    61  F          0.23651130       0.31664160       0.58863100
    62  F          0.76348870       0.81664160       0.91136900
    63  F          0.76348870       0.68335840       0.41136900
    64  F          0.23651130       0.18335840       0.08863100
    65  H          0.34260000       0.32760000       0.59330000
    66  H          0.65740000       0.82760000       0.90670000
    67  H          0.65740000       0.67240000       0.40670000
    68  H          0.34260000       0.17240000       0.09330000
    69  F          0.61490170       0.01392000       0.69893140
    70  F          0.38509830       0.51392000       0.80106860
    71  F          0.38509830      -0.01392000       0.30106860
    72  F          0.61490170       0.48608000       0.19893140
    73  H          0.58450000       0.10060000       0.66530000
    74  H          0.41550000       0.60060000       0.83470000
    75  H          0.41550000       0.89940000       0.33470000
    76  H          0.58450000       0.39940000       0.16530000
    77  F          0.63180150       0.29962000       0.44816110
    78  F          0.36819850       0.79962000       0.05183890
    79  F          0.36819850       0.70038000       0.55183890
    80  F          0.63180150       0.20038000       0.94816110
    81  H          0.58250000       0.28760000       0.50340000
    82  H          0.41750000       0.78760000      -0.00340000
    83  H          0.41750000       0.71240000       0.49660000
    84  H          0.58250000       0.21240000       0.00340000
    85  F          0.09176140       0.80228150       0.35971100
    86  F          0.90823860       0.30228150       0.14028900
    87  F          0.90823860       0.19771850       0.64028900
    88  F          0.09176140       0.69771850       0.85971100
