data_LAPFIV
_symmetry_space_group_name_H-M    'P1'
_symmetry_Int_Tables_number       1
loop_
_symmetry_equiv_pos_site_id
_symmetry_equiv_pos_as_xyz
1 x,y,z
_cell_length_a                   10.78787
_cell_length_b                   14.62279
_cell_length_c                   15.06124
_cell_angle_alpha                74.2374
_cell_angle_beta                 82.0314
_cell_angle_gamma                87.2635
loop_
_atom_site_label
_atom_site_type_symbol
_atom_site_fract_x
_atom_site_fract_y
_atom_site_fract_z
     1  Cl         0.20396500       0.10625500       0.35901400
     2  Cl         0.79603500       0.89374500       0.64098600
     3  C         -0.00223000       0.33892000       0.66598180
     4  C          0.00223000       0.66108000       0.33401820
     5  C          0.01643000       0.25392000       0.72984180
     6  C          0.98357000       0.74608000       0.27015820
     7  H          0.00908500       0.25110300       0.79410200
     8  H         -0.00908500       0.74889700       0.20589800
     9  C          0.04593000       0.17215190       0.70114170
    10  C          0.95407000       0.82784810       0.29885830
    11  H          0.05815600       0.11331300       0.74528100
    12  H          0.94184400       0.88668700       0.25471900
    13  C          0.05742000       0.17770180       0.60574160
    14  C          0.94258000       0.82229820       0.39425840
    15  C          0.04302000       0.26607190       0.54197170
    16  C          0.95698000       0.73392810       0.45802830
    17  H          0.05567600       0.27058000       0.47723700
    18  H          0.94432400       0.72942000       0.52276300
    19  C          0.01132000       0.34600190       0.57101170
    20  C          0.98868000       0.65399810       0.42898830
    21  H         -0.00135500       0.40508400       0.52733000
    22  H          0.00135500       0.59491600       0.47267000
    23  C          0.09332000       0.00575180       0.61500160
    24  C          0.90668000      -0.00575180       0.38499840
    25  C          0.15422000       0.85454820       0.57346160
    26  C          0.84578000       0.14545180       0.42653840
    27  C          0.10312000       0.78897810       0.65571160
    28  C          0.89688000       0.21102190       0.34428840
    29  H          0.05223400       0.81062100       0.70282500
    30  H          0.94776600       0.18937900       0.29717500
    31  C          0.12702000       0.69307810       0.66800170
    32  C          0.87298000       0.30692190       0.33199830
    33  H          0.09246400       0.64881000       0.72367600
    34  H          0.90753600       0.35119000       0.27632400
    35  C          0.22762000       0.82182820       0.50375160
    36  C          0.77238000       0.17817180       0.49624840
    37  H          0.26204700       0.86592600       0.44794100
    38  H          0.73795300       0.13407400       0.55205900
    39  C          0.25002000       0.72516820       0.51596160
    40  C          0.74998000       0.27483180       0.48403840
    41  C          0.20122000       0.66097810       0.59939170
    42  C          0.79878000       0.33902190       0.40060830
    43  C          0.24183000       0.56094810       0.60096190
    44  C          0.75817000       0.43905190       0.39903810
    45  H          0.17214500       0.52440300       0.59141800
    46  H          0.82785500       0.47559700       0.40858200
    47  H          0.27206500       0.52788400       0.66069000
    48  H          0.72793500       0.47211600       0.33931000
    49  C          0.34813000       0.57358000       0.51967180
    50  C          0.65187000       0.42642000       0.48032820
    51  H          0.43063500       0.56706800       0.54263800
    52  H          0.56936500       0.43293200       0.45736200
    53  H          0.34264100       0.52558200       0.48504200
    54  H          0.65735900       0.47441800       0.51495800
    55  C          0.33052000       0.67364820       0.45754170
    56  C          0.66948000       0.32635180       0.54245830
    57  C          0.38782000       0.69907810       0.36848170
    58  C          0.61218000       0.30092190       0.63151830
    59  C          0.48703000       0.63558000       0.33351190
    60  C          0.51297000       0.36442000       0.66648810
    61  H          0.44827200       0.58772800       0.31069100
    62  H          0.55172800       0.41227200       0.68930900
    63  H          0.53664900       0.60221200       0.38355200
    64  H          0.46335100       0.39778800       0.61644800
    65  C          0.56983000       0.70338000       0.25364190
    66  C          0.43017000       0.29662000       0.74635810
    67  H          0.64318600       0.72384200       0.27602800
    68  H          0.35681400       0.27615800       0.72397200
    69  H          0.59925400       0.67327500       0.20296100
    70  H          0.40074600       0.32672500       0.79703900
    71  C          0.48242000       0.78604810       0.22169170
    72  C          0.51758000       0.21395190       0.77830830
    73  C          0.49472000       0.85778000       0.13987170
    74  C          0.50528000       0.14222000       0.86012830
    75  H          0.56488500       0.85823000       0.09403400
    76  H          0.43511500       0.14177000       0.90596600
    77  C          0.40462000       0.92921810       0.12451170
    78  C          0.59538000       0.07078190       0.87548830
    79  H          0.41325100       0.97861700       0.06813500
    80  H          0.58674900       0.02138300       0.93186500
    81  C          0.30092000       0.92875820       0.19197160
    82  C          0.69908000       0.07124180       0.80802840
    83  C          0.28722000       0.85469820       0.27360160
    84  C          0.71278000       0.14530180       0.72639840
    85  H          0.21517700       0.85255600       0.31826400
    86  H          0.78482300       0.14744400       0.68173600
    87  C          0.37872000       0.78401810       0.28967160
    88  C          0.62128000       0.21598190       0.71032840
    89  C          0.21732000       0.08659180       0.11501160
    90  C          0.78268000       0.91340820       0.88498840
    91  C          0.15762000       0.25593180       0.09466160
    92  C          0.84238000       0.74406820       0.90533840
    93  C          0.16542000       0.28442000      -0.00280170
    94  C          0.83458000       0.71558000       0.00280170
    95  H          0.17009100       0.23813800       0.96306100
    96  H          0.82990900       0.76186200       0.03693900
    97  C          0.16622000       0.37972000       0.95145820
    98  C          0.83378000       0.62028000       0.04854180
    99  H          0.17230800       0.39952400       0.88549800
   100  H          0.82769200       0.60047600       0.11450200
   101  C          0.15822000       0.44675190       0.00185180
   102  C          0.84178000       0.55324810      -0.00185180
   103  C          0.14482000       0.42052000       0.09860190
   104  C          0.85518000       0.57948000       0.90139810
   105  H          0.13500900       0.46715200       0.13242600
   106  H          0.86499100       0.53284800       0.86757400
   107  C          0.14612000       0.32515190       0.14401170
   108  C          0.85388000       0.67484810       0.85598830
   109  H          0.13900200       0.30590800       0.21002400
   110  H          0.86099800       0.69409200       0.78997600
   111  N          0.96027000       0.42268180       0.69798170
   112  N          0.03973000       0.57731820       0.30201830
   113  N          0.08389190       0.10071150       0.56883140
   114  N          0.91610810       0.89928850       0.43116860
   115  H          0.10430000       0.11620000       0.50691500
   116  H          0.89570000       0.88380000       0.49308500
   117  N          0.13428190       0.95274850       0.55462140
   118  N          0.86571810       0.04725150       0.44537860
   119  H          0.16430000       0.98388100       0.49751600
   120  H          0.83570000       0.01611900       0.50248400
   121  N          0.21222000       0.00331160       0.18451140
   122  N          0.78778000      -0.00331160       0.81548860
   123  H          0.16830000       0.00520000       0.23601700
   124  H          0.83170000      -0.00520000       0.76398300
   125  N          0.16002000       0.16098150       0.14629140
   126  N          0.83998000       0.83901850       0.85370860
   127  H          0.15230000       0.15220000       0.20721600
   128  H          0.84770000       0.84780000       0.79278400
   129  N          0.16662000       0.54685170       0.95269830
   130  N          0.83338000       0.45314830       0.04730170
   131  O          0.96106000       0.41716190       0.78104170
   132  O          0.03894000       0.58283810       0.21895830
   133  O          0.93298000       0.49568150       0.64192150
   134  O          0.06702000       0.50431850       0.35807850
   135  O          0.06848160       0.97425870       0.69978110
   136  O          0.93151840       0.02574130       0.30021890
   137  O          0.26579180       0.09474140       0.03517120
   138  O          0.73420820       0.90525860       0.96482880
   139  O          0.14077190       0.60661150      -0.00351160
   140  O          0.85922810       0.39338850       0.00351160
   141  O          0.20252000       0.56840160       0.86786860
   142  O          0.79748000       0.43159840       0.13213140
   143  N          0.59592180       0.17226150       0.18868130
   144  N          0.40407820       0.82773850       0.81131870
   145  C          0.91123000       0.14642000       0.97282810
   146  C          0.08877000       0.85358000       0.02717190
   147  H          0.85481700       0.14221600       0.92840800
   148  H          0.14518300       0.85778400       0.07159200
   149  H         -0.00188100       0.14012500       0.94567500
   150  H          0.00188100       0.85987500       0.05432500
   151  H          0.89933200       0.20800300       0.98709400
   152  H          0.10066800       0.79199700       0.01290600
   153  C          0.88243000       0.06712000       0.06173180
   154  C          0.11757000       0.93288000       0.93826820
   155  H          0.94097900       0.07097500       0.10564000
   156  H          0.05902100       0.92902500       0.89436000
   157  H          0.89671500       0.00516500       0.04696900
   158  H          0.10328500      -0.00516500       0.95303100
   159  C          0.74872000       0.07102000       0.10893180
   160  C          0.25128000       0.92898000       0.89106820
   161  H          0.69014700       0.08059700       0.06198300
   162  H          0.30985300       0.91940300       0.93801700
   163  H          0.72855400       0.00975800       0.15575400
   164  H          0.27144600       0.99024200       0.84424600
   165  C          0.73112000       0.15127190       0.15632160
   166  C          0.26888000       0.84872810       0.84367840
   167  H          0.77783200       0.13484600       0.21077700
   168  H          0.22216800       0.86515400       0.78922300
   169  H          0.76832300       0.20970100       0.11245000
   170  H          0.23167700       0.79029900       0.88755000
   171  C          0.58293000       0.87188000       0.45912000
   172  C          0.41707000       0.12812000       0.54088000
   173  H          0.65342800       0.84299700       0.42760900
   174  H          0.34657200       0.15700300       0.57239100
   175  H          0.52398800       0.82242800       0.49541400
   176  H          0.47601200       0.17757200       0.50458600
   177  H          0.61399800       0.90414500       0.50070400
   178  H          0.38600200       0.09585500       0.49929600
   179  C          0.51743000       0.94318000       0.38752000
   180  C          0.48257000       0.05682000       0.61248000
   181  H          0.44122600       0.96678800       0.41957400
   182  H          0.55877400       0.03321200       0.58042600
   183  H          0.49027900       0.91048900       0.34402100
   184  H          0.50972100       0.08951100       0.65597900
   185  C          0.59672000       0.02782000       0.33161170
   186  C          0.40328000       0.97218000       0.66838830
   187  H          0.68005400       0.00553100       0.30868100
   188  H          0.31994600      -0.00553100       0.69131900
   189  H          0.60872600       0.06952000       0.37155700
   190  H          0.39127400       0.93048000       0.62844300
   191  C          0.53132000       0.08278180       0.24978170
   192  C          0.46868000       0.91721820       0.75021830
   193  H          0.52176700       0.03992800       0.21039800
   194  H          0.47823300       0.96007200       0.78960200
   195  H          0.44619300       0.10039700       0.27422800
   196  H          0.55380700       0.89960300       0.72577200
   197  C          0.52422000       0.20942000       0.10577170
   198  C          0.47578000       0.79058000       0.89422830
   199  H          0.52138500       0.15864000       0.07394200
   200  H          0.47861500       0.84136000       0.92605800
   201  H          0.43692500       0.22375700       0.12875800
   202  H          0.56307500       0.77624300       0.87124200
   203  C          0.57982000       0.29792000       0.03538180
   204  C          0.42018000       0.70208000       0.96461820
   205  H          0.60804500       0.34135000       0.06857500
   206  H          0.39195500       0.65865000       0.93142500
   207  H          0.65359200       0.27981500      -0.00344400
   208  H          0.34640800       0.72018500       0.00344400
   209  C          0.48433000       0.34852000       0.97355810
   210  C          0.51567000       0.65148000       0.02644190
   211  H          0.41290800       0.36969000       0.01228100
   212  H          0.58709200       0.63031000       0.98771900
   213  H          0.45215600       0.30349600       0.94380000
   214  H          0.54784400       0.69650400       0.05620000
   215  C          0.53943000       0.43432000       0.89828000
   216  C          0.46057000       0.56568000       0.10172000
   217  H          0.57030100       0.47949300       0.92746500
   218  H          0.42969900       0.52050700       0.07253500
   219  H          0.47460600       0.46505300       0.86027200
   220  H          0.52539400       0.53494700       0.13972800
   221  H          0.60877700       0.41343600       0.85877900
   222  H          0.39122300       0.58656400       0.14122100
   223  C          0.59532000       0.24642180       0.24319170
   224  C          0.40468000       0.75357820       0.75680830
   225  H          0.62803300       0.21658900       0.30275700
   226  H          0.37196700       0.78341100       0.69724300
   227  H          0.65284300       0.29820000       0.20730100
   228  H          0.34715700       0.70180000       0.79269900
   229  C          0.46752000       0.28902000       0.26384180
   230  C          0.53248000       0.71098000       0.73615820
   231  H          0.40646400       0.23722400       0.29148300
   232  H          0.59353600       0.76277600       0.70851700
   233  H          0.44010700       0.32795500       0.20498800
   234  H          0.55989300       0.67204500       0.79501200
   235  C          0.46913000       0.35052000       0.33050190
   236  C          0.53087000       0.64948000       0.66949810
   237  H          0.50389600       0.31347100       0.38711500
   238  H          0.49610400       0.68652900       0.61288500
   239  H          0.52347700       0.40605800       0.30053100
   240  H          0.47652300       0.59394200       0.69946900
   241  C          0.33763000       0.38443000       0.35723000
   242  C          0.66237000       0.61557000       0.64277000
   243  H          0.30419300       0.42259900       0.30132800
   244  H          0.69580700       0.57740100       0.69867200
   245  H          0.33983900       0.42314500       0.40084400
   246  H          0.66016100       0.57685500       0.59915600
   247  H          0.28387800       0.32937100       0.38682300
   248  H          0.71612200       0.67062900       0.61317700
