data_LAQNAT
_symmetry_space_group_name_H-M    'P1'
_symmetry_Int_Tables_number       1
loop_
_symmetry_equiv_pos_site_id
_symmetry_equiv_pos_as_xyz
1 x,y,z
_cell_length_a                   9.8554
_cell_length_b                   11.0153
_cell_length_c                   24.3314
_cell_angle_alpha                90.0
_cell_angle_beta                 100.402
_cell_angle_gamma                90.0
loop_
_atom_site_label
_atom_site_type_symbol
_atom_site_fract_x
_atom_site_fract_y
_atom_site_fract_z
     1  N          0.14065000       0.44594000       0.43135170
     2  N          0.85935000       0.94594000       0.06864830
     3  N          0.85935000       0.55406000       0.56864830
     4  N          0.14065000       0.05406000       0.93135170
     5  P          0.28568150       0.46944130       0.46451500
     6  P          0.71431850       0.96944130       0.03548500
     7  P          0.71431850       0.53055870       0.53548500
     8  P          0.28568150       0.03055870       0.96451500
     9  F          0.38323000       0.46043000       0.42218110
    10  F          0.61677000       0.96043000       0.07781890
    11  F          0.61677000       0.53957000       0.57781890
    12  F          0.38323000       0.03957000       0.92218110
    13  F          0.29943000       0.60533000       0.47640130
    14  F          0.70057000       0.10533000       0.02359870
    15  F          0.70057000       0.39467000       0.52359870
    16  F          0.29943000       0.89467000       0.97640130
    17  N          0.35394000       0.39544000       0.51595160
    18  N          0.64606000       0.89544000       0.98404840
    19  N          0.64606000       0.60456000       0.48404840
    20  N          0.35394000       0.10456000       0.01595160
    21  P          0.33515140       0.34788140       0.57431500
    22  P          0.66484860       0.84788140       0.92568500
    23  P          0.66484860       0.65211860       0.42568500
    24  P          0.33515140       0.15211860       0.07431500
    25  F          0.46843000       0.27553000       0.59490120
    26  F          0.53157000       0.77553000       0.90509880
    27  F          0.53157000       0.72447000       0.40509880
    28  F          0.46843000       0.22447000       0.09490120
    29  N          0.21595000       0.25714000       0.57896170
    30  N          0.78405000       0.75714000       0.92103830
    31  N          0.78405000       0.74286000       0.42103830
    32  N          0.21595000       0.24286000       0.07896170
    33  P          0.06827150       0.23631130       0.54667500
    34  P          0.93172850       0.73631130       0.95332500
    35  P          0.93172850       0.76368870       0.45332500
    36  P          0.06827150       0.26368870       0.04667500
    37  F          0.96797000       0.25803000       0.58669120
    38  F          0.03203000       0.75803000       0.91330880
    39  F          0.03203000       0.74197000       0.41330880
    40  F          0.96797000       0.24197000       0.08669120
    41  F          0.04954000       0.09853000       0.54104140
    42  F          0.95046000       0.59853000       0.95895860
    43  F          0.95046000       0.90147000       0.45895860
    44  F          0.04954000       0.40147000       0.04104140
    45  N          0.35134000       0.45524000       0.62209160
    46  N          0.64866000       0.95524000       0.87790840
    47  N          0.64866000       0.54476000       0.37790840
    48  N          0.35134000       0.04476000       0.12209160
    49  S          0.24177140       0.54972130       0.62690500
    50  S          0.75822860       0.04972130       0.87309500
    51  S          0.75822860       0.45027870       0.37309500
    52  S          0.24177140       0.95027870       0.12690500
    53  Cl         0.13051160       0.47341130       0.70677600
    54  Cl         0.86948840       0.97341130       0.79322400
    55  Cl         0.86948840       0.52658870       0.29322400
    56  Cl         0.13051160       0.02658870       0.20677600
    57  N          0.12614000       0.54434000       0.57462160
    58  N          0.87386000       0.04434000       0.92537840
    59  N          0.87386000       0.45566000       0.42537840
    60  N          0.12614000       0.95566000       0.07462160
    61  P          0.00982140       0.37022130       0.43751500
    62  P         -0.00982140       0.87022130       0.06248500
    63  P         -0.00982140       0.62977870       0.56248500
    64  P          0.00982140       0.12977870       0.93751500
    65  F         -0.00943000       0.27703000       0.38861110
    66  F          0.00943000       0.77703000       0.11138890
    67  F          0.00943000       0.72297000       0.61138890
    68  F         -0.00943000       0.22297000       0.88861110
    69  N          0.00575000       0.29494000       0.49106170
    70  N         -0.00575000       0.79494000       0.00893830
    71  N         -0.00575000       0.70506000       0.50893830
    72  N          0.00575000       0.20506000       0.99106170
    73  S          0.66163860       0.48936120       0.72960500
    74  S          0.33836140      -0.01063880       0.77039500
    75  S          0.33836140       0.51063880       0.27039500
    76  S          0.66163860       0.01063880       0.22960500
    77  N          0.59516000       0.46864000       0.78793170
    78  N          0.40484000       0.96864000       0.71206830
    79  N          0.40484000       0.53136000       0.21206830
    80  N          0.59516000       0.03136000       0.28793170
    81  C          0.50774000       0.35945000       0.78442000
    82  C          0.49226000       0.85945000       0.71558000
    83  C          0.49226000       0.64055000       0.21558000
    84  C          0.50774000       0.14055000       0.28442000
    85  H          0.46910000       0.35190000       0.81860000
    86  H          0.53090000       0.85190000       0.68140000
    87  H          0.53090000       0.64810000       0.18140000
    88  H          0.46910000       0.14810000       0.31860000
    89  H          0.56350000       0.28750000       0.78010000
    90  H          0.43650000       0.78750000       0.71990000
    91  H          0.43650000       0.71250000       0.21990000
    92  H          0.56350000       0.21250000       0.28010000
    93  H          0.43260000       0.36630000       0.75220000
    94  H          0.56740000       0.86630000       0.74780000
    95  H          0.56740000       0.63370000       0.24780000
    96  H          0.43260000       0.13370000       0.25220000
    97  C          0.52013000       0.57555000       0.80333000
    98  C          0.47987000       0.07555000       0.69667000
    99  C          0.47987000       0.42445000       0.19667000
   100  C          0.52013000       0.92445000       0.30333000
   101  H          0.43510000       0.58650000       0.77600000
   102  H          0.56490000       0.08650000       0.72400000
   103  H          0.56490000       0.41350000       0.22400000
   104  H          0.43510000       0.91350000       0.27600000
   105  H          0.57830000       0.64780000       0.80370000
   106  H          0.42170000       0.14780000       0.69630000
   107  H          0.42170000       0.35220000       0.19630000
   108  H          0.57830000       0.85220000       0.30370000
   109  H          0.49740000       0.56320000       0.84050000
   110  H          0.50260000       0.06320000       0.65950000
   111  H          0.50260000       0.43680000       0.15950000
   112  H          0.49740000       0.93680000       0.34050000
   113  N          0.74496000       0.36314000       0.73003160
   114  N          0.25504000       0.86314000       0.76996840
   115  N          0.25504000       0.63686000       0.26996840
   116  N          0.74496000       0.13686000       0.23003160
   117  C          0.77574000       0.32405000       0.67542000
   118  C          0.22426000       0.82405000       0.82458000
   119  C          0.22426000       0.67595000       0.32458000
   120  C          0.77574000       0.17595000       0.17542000
   121  H          0.86390000       0.35910000       0.67010000
   122  H          0.13610000       0.85910000       0.82990000
   123  H          0.13610000       0.64090000       0.32990000
   124  H          0.86390000       0.14090000       0.17010000
   125  H          0.70220000       0.35190000       0.64540000
   126  H          0.29780000       0.85190000       0.85460000
   127  H          0.29780000       0.64810000       0.35460000
   128  H          0.70220000       0.14810000       0.14540000
   129  H          0.78160000       0.23530000       0.67440000
   130  H          0.21840000       0.73530000       0.82560000
   131  H          0.21840000       0.76470000       0.32560000
   132  H          0.78160000       0.26470000       0.17440000
   133  C          0.84414000       0.32095000       0.77882000
   134  C          0.15586000       0.82095000       0.72118000
   135  C          0.15586000       0.67905000       0.22118000
   136  C          0.84414000       0.17905000       0.27882000
   137  H          0.84860000       0.23200000       0.77850000
   138  H          0.15140000       0.73200000       0.72150000
   139  H          0.15140000       0.76800000       0.22150000
   140  H          0.84860000       0.26800000       0.27850000
   141  H          0.81440000       0.34820000       0.81310000
   142  H          0.18560000       0.84820000       0.68690000
   143  H          0.18560000       0.65180000       0.18690000
   144  H          0.81440000       0.15180000       0.31310000
   145  H          0.93560000       0.35440000       0.77740000
   146  H          0.06440000       0.85440000       0.72260000
   147  H          0.06440000       0.64560000       0.22260000
   148  H          0.93560000       0.14560000       0.27740000
   149  N          0.75315000       0.60944000       0.74789160
   150  N          0.24685000       0.10944000       0.75210840
   151  N          0.24685000       0.39056000       0.25210840
   152  N          0.75315000       0.89056000       0.24789160
   153  C          0.79154000       0.67805000       0.70082000
   154  C          0.20846000       0.17805000       0.79918000
   155  C          0.20846000       0.32195000       0.29918000
   156  C          0.79154000       0.82195000       0.20082000
   157  H          0.80790000       0.76310000       0.71160000
   158  H          0.19210000       0.26310000       0.78840000
   159  H          0.19210000       0.23690000       0.28840000
   160  H          0.80790000       0.73690000       0.21160000
   161  H          0.71650000       0.67290000       0.66840000
   162  H          0.28350000       0.17290000       0.83160000
   163  H          0.28350000       0.32710000       0.33160000
   164  H          0.71650000       0.82710000       0.16840000
   165  H          0.87570000       0.64320000       0.69110000
   166  H          0.12430000       0.14320000       0.80890000
   167  H          0.12430000       0.35680000       0.30890000
   168  H          0.87570000       0.85680000       0.19110000
   169  C          0.85664000       0.61665000       0.80002000
   170  C          0.14336000       0.11665000       0.69998000
   171  C          0.14336000       0.38335000       0.19998000
   172  C          0.85664000       0.88335000       0.30002000
   173  H          0.94450000       0.58310000       0.79340000
   174  H          0.05550000       0.08310000       0.70660000
   175  H          0.05550000       0.41690000       0.20660000
   176  H          0.94450000       0.91690000       0.29340000
   177  H          0.82440000       0.56980000       0.82940000
   178  H          0.17560000       0.06980000       0.67060000
   179  H          0.17560000       0.43020000       0.17060000
   180  H          0.82440000       0.93020000       0.32940000
   181  H          0.86970000       0.70160000       0.81160000
   182  H          0.13030000       0.20160000       0.68840000
   183  H          0.13030000       0.29840000       0.18840000
   184  H          0.86970000       0.79840000       0.31160000
   185  O          0.44164000       0.08134000       0.41747160
   186  O          0.55836000       0.58134000       0.08252840
   187  O          0.55836000       0.91866000       0.58252840
   188  O          0.44164000       0.41866000       0.91747160
   189  C          0.54466000       0.14776000       0.45333000
   190  C          0.45534000       0.64776000       0.04667000
   191  C          0.45534000       0.85224000       0.54667000
   192  C          0.54466000       0.35224000       0.95333000
   193  H          0.54350000       0.12590000       0.49270000
   194  H          0.45650000       0.62590000       0.00730000
   195  H          0.45650000       0.87410000       0.50730000
   196  H          0.54350000       0.37410000       0.99270000
   197  H          0.52600000       0.23580000       0.44870000
   198  H          0.47400000       0.73580000       0.05130000
   199  H          0.47400000       0.76420000       0.55130000
   200  H          0.52600000       0.26420000       0.94870000
   201  C          0.68227000       0.11937000       0.43943000
   202  C          0.31773000       0.61937000       0.06057000
   203  C          0.31773000       0.88063000       0.56057000
   204  C          0.68227000       0.38063000       0.93943000
   205  H          0.69770000       0.03150000       0.44170000
   206  H          0.30230000       0.53150000       0.05830000
   207  H          0.30230000       0.96850000       0.55830000
   208  H          0.69770000       0.46850000       0.94170000
   209  H          0.75410000       0.16050000       0.46600000
   210  H          0.24590000       0.66050000       0.03400000
   211  H          0.24590000       0.83950000       0.53400000
   212  H          0.75410000       0.33950000       0.96600000
   213  H          0.68540000       0.14740000       0.40150000
   214  H          0.31460000       0.64740000       0.09850000
   215  H          0.31460000       0.85260000       0.59850000
   216  H          0.68540000       0.35260000       0.90150000
   217  C          0.30656000       0.10296000       0.42723000
   218  C          0.69344000       0.60296000       0.07277000
   219  C          0.69344000       0.89704000       0.57277000
   220  C          0.30656000       0.39704000       0.92723000
   221  H          0.28020000       0.18840000       0.41840000
   222  H          0.71980000       0.68840000       0.08160000
   223  H          0.71980000       0.81160000       0.58160000
   224  H          0.28020000       0.31160000       0.91840000
   225  H          0.30260000       0.08810000       0.46700000
   226  H          0.69740000       0.58810000       0.03300000
   227  H          0.69740000       0.91190000       0.53300000
   228  H          0.30260000       0.41190000       0.96700000
   229  C          0.21077000       0.02106000       0.39163000
   230  C          0.78923000       0.52106000       0.10837000
   231  C          0.78923000       0.97894000       0.60837000
   232  C          0.21077000       0.47894000       0.89163000
   233  H          0.21980000       0.03220000       0.35250000
   234  H          0.78020000       0.53220000       0.14750000
   235  H          0.78020000       0.96780000       0.64750000
   236  H          0.21980000       0.46780000       0.85250000
   237  H          0.11600000       0.03950000       0.39590000
   238  H          0.88400000       0.53950000       0.10410000
   239  H          0.88400000       0.96050000       0.60410000
   240  H          0.11600000       0.46050000       0.89590000
   241  H          0.23260000       0.93680000       0.40280000
   242  H          0.76740000       0.43680000       0.09720000
   243  H          0.76740000       0.06320000       0.59720000
   244  H          0.23260000       0.56320000       0.90280000
