data_LASGUJ
_symmetry_space_group_name_H-M    'P1'
_symmetry_Int_Tables_number       1
loop_
_symmetry_equiv_pos_site_id
_symmetry_equiv_pos_as_xyz
1 x,y,z
_cell_length_a                   3.88962
_cell_length_b                   19.611713
_cell_length_c                   13.04758
_cell_angle_alpha                90.0
_cell_angle_beta                 92.4173
_cell_angle_gamma                90.0
loop_
_atom_site_label
_atom_site_type_symbol
_atom_site_fract_x
_atom_site_fract_y
_atom_site_fract_z
     1  O          0.33574000       0.36730700       0.47518110
     2  O          0.66426000       0.86730700       0.02481890
     3  O          0.66426000       0.63269300       0.52481890
     4  O          0.33574000       0.13269300       0.97518110
     5  H          0.43490000       0.33771800       0.41930000
     6  H          0.56510000       0.83771800       0.08070000
     7  H          0.56510000       0.66228200       0.58070000
     8  H          0.43490000       0.16228200       0.91930000
     9  O          0.24674000       0.44123700       0.34605110
    10  O          0.75326000       0.94123700       0.15394890
    11  O          0.75326000       0.55876300       0.65394890
    12  O          0.24674000       0.05876300       0.84605110
    13  C          0.22765000       0.42570100       0.43561150
    14  C          0.77235000       0.92570100       0.06438850
    15  C          0.77235000       0.57429900       0.56438850
    16  C          0.22765000       0.07429900       0.93561150
    17  C          0.07575000       0.47101100       0.51290150
    18  C          0.92425000       0.97101100       0.98709850
    19  C          0.92425000       0.52898900       0.48709850
    20  C          0.07575000       0.02898900       0.01290150
    21  H          0.08810000       0.45780000       0.58300000
    22  H          0.91190000       0.95780000       0.91700000
    23  H          0.91190000       0.54220000       0.41700000
    24  H          0.08810000       0.04220000       0.08300000
    25  N          0.57224000       0.28661800       0.33581130
    26  N          0.42776000       0.78661800       0.16418870
    27  N          0.42776000       0.71338200       0.66418870
    28  N          0.57224000       0.21338200       0.83581130
    29  C          0.71755000       0.31245110       0.25533160
    30  C          0.28245000       0.81245110       0.24466840
    31  C          0.28245000       0.68754890       0.74466840
    32  C          0.71755000       0.18754890       0.75533160
    33  H          0.75600000       0.36030000       0.25330000
    34  H          0.24400000       0.86030000       0.24670000
    35  H          0.24400000       0.63970000       0.74670000
    36  H          0.75600000       0.13970000       0.75330000
    37  C          0.81825000       0.27276110       0.17243160
    38  C          0.18175000       0.77276110       0.32756840
    39  C          0.18175000       0.72723890       0.82756840
    40  C          0.81825000       0.22723890       0.67243160
    41  H          0.92160000       0.29360000       0.11570000
    42  H          0.07840000       0.79360000       0.38430000
    43  H          0.07840000       0.70640000       0.88430000
    44  H          0.92160000       0.20640000       0.61570000
    45  C          0.76625000       0.20394110       0.17402150
    46  C          0.23375000       0.70394110       0.32597850
    47  C          0.23375000       0.79605890       0.82597850
    48  C          0.76625000       0.29605890       0.67402150
    49  H          0.83620000       0.17640000       0.11880000
    50  H          0.16380000       0.67640000       0.38120000
    51  H          0.16380000       0.82360000       0.88120000
    52  H          0.83620000       0.32360000       0.61880000
    53  C          0.53605000       0.10341100       0.26623160
    54  C          0.46395000       0.60341100       0.23376840
    55  C          0.46395000       0.89658900       0.73376840
    56  C          0.53605000       0.39658900       0.76623160
    57  H          0.59900000       0.07380000       0.21260000
    58  H          0.40100000       0.57380000       0.28740000
    59  H          0.40100000       0.92620000       0.78740000
    60  H          0.59900000       0.42620000       0.71260000
    61  C          0.37765000       0.07688100       0.34936160
    62  C          0.62235000       0.57688100       0.15063840
    63  C          0.62235000       0.92311900       0.65063840
    64  C          0.37765000       0.42311900       0.84936160
    65  C          0.29005000       0.12176110       0.42933160
    66  C          0.70995000       0.62176110       0.07066840
    67  C          0.70995000       0.87823890       0.57066840
    68  C          0.29005000       0.37823890       0.92933160
    69  H          0.18240000       0.10390000       0.48760000
    70  H          0.81760000       0.60390000       0.01240000
    71  H          0.81760000       0.89610000       0.51240000
    72  H          0.18240000       0.39610000       0.98760000
    73  C          0.35645000       0.19004100       0.42483150
    74  C          0.64355000       0.69004100       0.07516850
    75  C          0.64355000       0.80995900       0.57516850
    76  C          0.35645000       0.30995900       0.92483150
    77  H          0.29550000       0.21890000       0.47960000
    78  H          0.70450000       0.71890000       0.02040000
    79  H          0.70450000       0.78110000       0.52040000
    80  H          0.29550000       0.28110000       0.97960000
    81  C          0.51485000       0.21780100       0.33913150
    82  C          0.48515000       0.71780100       0.16086850
    83  C          0.48515000       0.78219900       0.66086850
    84  C          0.51485000       0.28219900       0.83913150
    85  C          0.60775000       0.17401100       0.25850150
    86  C          0.39225000       0.67401100       0.24149850
    87  C          0.39225000       0.82598900       0.74149850
    88  C          0.60775000       0.32598900       0.75850150
    89  C          0.29196000       0.00220110       0.35566180
    90  C          0.70804000       0.50220110       0.14433820
    91  C          0.70804000      -0.00220110       0.64433820
    92  C          0.29196000       0.49779890       0.85566180
    93  H          0.44480000       0.97620000       0.31240000
    94  H          0.55520000       0.47620000       0.18760000
    95  H          0.55520000       0.02380000       0.68760000
    96  H          0.44480000       0.52380000       0.81240000
    97  H          0.05240000      -0.00500000       0.33180000
    98  H          0.94760000       0.49500000       0.16820000
    99  H          0.94760000       0.00500000       0.66820000
   100  H          0.05240000       0.50500000       0.83180000
   101  H          0.32280000       0.98680000       0.42690000
   102  H          0.67720000       0.48680000       0.07310000
   103  H          0.67720000       0.01320000       0.57310000
   104  H          0.32280000       0.51320000       0.92690000
