data_LASQIJ
_symmetry_space_group_name_H-M    'P1'
_symmetry_Int_Tables_number       1
loop_
_symmetry_equiv_pos_site_id
_symmetry_equiv_pos_as_xyz
1 x,y,z
_cell_length_a                   14.22552
_cell_length_b                   24.62803
_cell_length_c                   8.163201
_cell_angle_alpha                90.0
_cell_angle_beta                 99.28201
_cell_angle_gamma                90.0
loop_
_atom_site_label
_atom_site_type_symbol
_atom_site_fract_x
_atom_site_fract_y
_atom_site_fract_z
     1  Cl         0.56010800       0.46718400       0.33611150
     2  Cl         0.43989200       0.96718400       0.16388850
     3  Cl         0.43989200       0.53281600       0.66388850
     4  Cl         0.56010800       0.03281600       0.83611150
     5  Cl         0.58513500       0.65674300       0.01949110
     6  Cl         0.41486500       0.15674300       0.48050890
     7  Cl         0.41486500       0.34325700       0.98050890
     8  Cl         0.58513500       0.84325700       0.51949110
     9  O          0.33499110       0.67160800       0.52702000
    10  O          0.66500890       0.17160800       0.97298000
    11  O          0.66500890       0.32839200       0.47298000
    12  O          0.33499110       0.82839200       0.02702000
    13  H          0.27804900       0.66705400       0.49329700
    14  H          0.72195100       0.16705400       0.00670300
    15  H          0.72195100       0.33294600       0.50670300
    16  H          0.27804900       0.83294600      -0.00670300
    17  O          0.34818110       0.61093700       0.33042000
    18  O          0.65181890       0.11093700       0.16958000
    19  O          0.65181890       0.38906300       0.66958000
    20  O          0.34818110       0.88906300       0.83042000
    21  N          0.52141140       0.58467900       0.27443000
    22  N          0.47858860       0.08467900       0.22557000
    23  N          0.47858860       0.41532100       0.72557000
    24  N          0.52141140       0.91532100       0.77443000
    25  H          0.46306500       0.57457600       0.26810500
    26  H          0.53693500       0.07457600       0.23189500
    27  H          0.53693500       0.42542400       0.73189500
    28  H          0.46306500       0.92542400       0.76810500
    29  C          0.55362150       0.62438100       0.38883000
    30  C          0.44637850       0.12438100       0.11117000
    31  C          0.44637850       0.37561900       0.61117000
    32  C          0.55362150       0.87561900       0.88883000
    33  C          0.48959150       0.65356900       0.47083000
    34  C          0.51040850       0.15356900       0.02917000
    35  C          0.51040850       0.34643100       0.52917000
    36  C          0.48959150       0.84643100       0.97083000
    37  C          0.52585170       0.69296100       0.58673000
    38  C          0.47414830       0.19296100       0.91327000
    39  C          0.47414830       0.30703900       0.41327000
    40  C          0.52585170       0.80703900       0.08673000
    41  H          0.48410900       0.71184400       0.64269900
    42  H          0.51589100       0.21184400       0.85730100
    43  H          0.51589100       0.28815600       0.35730100
    44  H          0.48410900       0.78815600       0.14269900
    45  C          0.62204190       0.70476120       0.62093000
    46  C          0.37795810       0.20476120       0.87907000
    47  C          0.37795810       0.29523880       0.37907000
    48  C          0.62204190       0.79523880       0.12093000
    49  H          0.64460700       0.73192400       0.69618800
    50  H          0.35539300       0.23192400       0.80381200
    51  H          0.35539300       0.26807600       0.30381200
    52  H          0.64460700       0.76807600       0.19618800
    53  C          0.68412180       0.67543130       0.54094000
    54  C          0.31587820       0.17543130       0.95906000
    55  C          0.31587820       0.32456870       0.45906000
    56  C          0.68412180       0.82456870       0.04094000
    57  H          0.74906700       0.68269300       0.56388300
    58  H          0.25093300       0.18269300       0.93611700
    59  H          0.25093300       0.31730700       0.43611700
    60  H          0.74906700       0.81730700       0.06388300
    61  C          0.65125170       0.63584120       0.42834000
    62  C          0.34874830       0.13584120       0.07166000
    63  C          0.34874830       0.36415880       0.57166000
    64  C          0.65125170       0.86415880       0.92834000
    65  H          0.69433500       0.61623600       0.37721200
    66  H          0.30566500       0.11623600       0.12278800
    67  H          0.30566500       0.38376400       0.62278800
    68  H          0.69433500       0.88376400       0.87721200
    69  C          0.38536150       0.64289900       0.43513000
    70  C          0.61463850       0.14289900       0.06487000
    71  C          0.61463850       0.35710100       0.56487000
    72  C          0.38536150       0.85710100       0.93513000
    73  C          0.57582150       0.55933100       0.16743000
    74  C          0.42417850       0.05933100       0.33257000
    75  C          0.42417850       0.44066900       0.83257000
    76  C          0.57582150       0.94066900       0.66743000
    77  C          0.59451190       0.50407110       0.17784000
    78  C          0.40548810       0.00407110       0.32216000
    79  C          0.40548810       0.49592890       0.82216000
    80  C          0.59451190      -0.00407110       0.67784000
    81  C          0.63992000       0.47836140       0.05956000
    82  C          0.36008000       0.97836140       0.44044000
    83  C          0.36008000       0.52163860       0.94044000
    84  C          0.63992000       0.02163860       0.55956000
    85  H          0.65019900       0.44106000       0.06496600
    86  H          0.34980100       0.94106000       0.43503400
    87  H          0.34980100       0.55894000       0.93503400
    88  H          0.65019900       0.05894000       0.56496600
    89  C          0.66922000       0.50812000       0.93564000
    90  C          0.33078000       0.00812000       0.56436000
    91  C          0.33078000       0.49188000       0.06436000
    92  C          0.66922000       0.99188000       0.43564000
    93  H          0.69943600       0.49081900       0.85730100
    94  H          0.30056400       0.99081900       0.64269900
    95  H          0.30056400       0.50918100       0.14269900
    96  H          0.69943600       0.00918100       0.35730100
    97  C          0.65482000       0.56285170       0.92566000
    98  C          0.34518000       0.06285170       0.57434000
    99  C          0.34518000       0.43714830       0.07434000
   100  C          0.65482000       0.93714830       0.42566000
   101  H          0.67647000       0.58305100       0.84303500
   102  H          0.32353000       0.08305100       0.65696500
   103  H          0.32353000       0.41694900       0.15696500
   104  H          0.67647000       0.91694900       0.34303500
   105  C          0.60798170       0.58753120       0.03893000
   106  C          0.39201830       0.08753120       0.46107000
   107  C          0.39201830       0.41246880       0.96107000
   108  C          0.60798170       0.91246880       0.53893000
   109  Cl         0.92487500       0.51796400       0.12504800
   110  Cl         0.07512500       0.01796400       0.37495200
   111  Cl         0.07512500       0.48203600       0.87495200
   112  Cl         0.92487500       0.98203600       0.62504800
   113  Cl         0.94377500       0.62417300       0.70930900
   114  Cl         0.05622500       0.12417300       0.79069100
   115  Cl         0.05622500       0.37582700       0.29069100
   116  Cl         0.94377500       0.87582700       0.20930900
   117  O          0.18561100       0.72053600       0.24279190
   118  O          0.81438900       0.22053600       0.25720810
   119  O          0.81438900       0.27946400       0.75720810
   120  O          0.18561100       0.77946400       0.74279190
   121  O          0.15259100       0.66311700       0.43359190
   122  O          0.84740900       0.16311700       0.06640810
   123  O          0.84740900       0.33688300       0.56640810
   124  O          0.15259100       0.83688300       0.93359190
   125  N         -0.01133130       0.60853900       0.36862000
   126  N          0.01133130       0.10853900       0.13138000
   127  N          0.01133130       0.39146100       0.63138000
   128  N         -0.01133130       0.89146100       0.86862000
   129  H          0.04730800       0.60849800       0.41558900
   130  H          0.95269200       0.10849800       0.08441100
   131  H          0.95269200       0.39150200       0.58441100
   132  H          0.04730800       0.89150200       0.91558900
   133  C          0.02783140       0.68690800       0.21332000
   134  C          0.97216860       0.18690800       0.28668000
   135  C          0.97216860       0.31309200       0.78668000
   136  C          0.02783140       0.81309200       0.71332000
   137  C          0.96128860       0.64756900       0.24942000
   138  C          0.03871140       0.14756900       0.25058000
   139  C          0.03871140       0.35243100       0.75058000
   140  C          0.96128860       0.85243100       0.74942000
   141  C          0.86833850       0.64961100       0.16133000
   142  C          0.13166150       0.14961100       0.33867000
   143  C          0.13166150       0.35038900       0.83867000
   144  C          0.86833850       0.85038900       0.66133000
   145  H          0.82379800       0.62410000       0.18327200
   146  H          0.17620200       0.12410000       0.31672800
   147  H          0.17620200       0.37590000       0.81672800
   148  H          0.82379800       0.87590000       0.68327200
   149  C          0.84196830       0.68880110       0.04273000
   150  C          0.15803170       0.18880110       0.45727000
   151  C          0.15803170       0.31119890       0.95727000
   152  C          0.84196830       0.81119890       0.54273000
   153  H          0.77970700       0.68953800      -0.01369400
   154  H          0.22029300       0.18953800       0.51369400
   155  H          0.22029300       0.31046200       0.01369400
   156  H          0.77970700       0.81046200       0.48630600
   157  C          0.90640820       0.72708100       0.00593000
   158  C          0.09359180       0.22708100       0.49407000
   159  C          0.09359180       0.27291900      -0.00593000
   160  C          0.90640820       0.77291900       0.50593000
   161  H          0.88825400       0.75322100       0.92471900
   162  H          0.11174600       0.25322100       0.57528100
   163  H          0.11174600       0.24677900       0.07528100
   164  H          0.88825400       0.74677900       0.42471900
   165  C         -0.00190160       0.72578900       0.09173000
   166  C          0.00190160       0.22578900       0.40827000
   167  C          0.00190160       0.27421100       0.90827000
   168  C         -0.00190160       0.77421100       0.59173000
   169  H          0.04155100       0.75164900       0.06781200
   170  H          0.95844900       0.25164900       0.43218800
   171  H          0.95844900       0.24835100       0.93218800
   172  H          0.04155100       0.74835100       0.56781200
   173  C          0.12804140       0.68956800       0.30253000
   174  C          0.87195860       0.18956800       0.19747000
   175  C          0.87195860       0.31043200       0.69747000
   176  C          0.12804140       0.81043200       0.80253000
   177  C          0.92902870       0.56898800       0.41962000
   178  C          0.07097130       0.06898800       0.08038000
   179  C          0.07097130       0.43101200       0.58038000
   180  C          0.92902870       0.93101200       0.91962000
   181  C          0.89526840       0.52457100       0.32173000
   182  C          0.10473160       0.02457100       0.17827000
   183  C          0.10473160       0.47542900       0.67827000
   184  C          0.89526840       0.97542900       0.82173000
   185  C          0.84020820       0.48447100       0.37884000
   186  C          0.15979180       0.98447100       0.12116000
   187  C          0.15979180       0.51552900       0.62116000
   188  C          0.84020820       0.01552900       0.87884000
   189  H          0.81743300       0.45565300       0.31000400
   190  H          0.18256700       0.95565300       0.18999600
   191  H          0.18256700       0.54434700       0.68999600
   192  H          0.81743300       0.04434700       0.81000400
   193  C          0.81942810       0.48742110       0.53694000
   194  C          0.18057190       0.98742110       0.96306000
   195  C          0.18057190       0.51257890       0.46306000
   196  C          0.81942810       0.01257890       0.03694000
   197  H          0.78288300       0.46043200       0.57559500
   198  H          0.21711700       0.96043200       0.92440500
   199  H          0.21711700       0.53956800       0.42440500
   200  H          0.78288300       0.03956800       0.07559500
   201  C          0.85225830       0.52987110       0.63773000
   202  C          0.14774170       0.02987110       0.86227000
   203  C          0.14774170       0.47012890       0.36227000
   204  C          0.85225830       0.97012890       0.13773000
   205  H          0.83901400       0.53159800       0.74543500
   206  H          0.16098600       0.03159800       0.75456500
   207  H          0.16098600       0.46840200       0.25456500
   208  H          0.83901400       0.96840200       0.24543500
   209  C          0.90524850       0.57022900       0.57853000
   210  C          0.09475150       0.07022900       0.92147000
   211  C          0.09475150       0.42977100       0.42147000
   212  C          0.90524850       0.92977100       0.07853000
   213  N          0.24673140       0.80208800       0.45292000
   214  N          0.75326860       0.30208800       0.04708000
   215  N          0.75326860       0.19791200       0.54708000
   216  N          0.24673140       0.69791200       0.95292000
   217  H          0.23252600       0.77405400       0.38461400
   218  H          0.76747400       0.27405400       0.11538600
   219  H          0.76747400       0.22594600       0.61538600
   220  H          0.23252600       0.72594600       0.88461400
   221  H          0.23382400       0.79250300       0.55207100
   222  H          0.76617600       0.29250300       0.94792900
   223  H          0.76617600       0.20749700       0.44792900
   224  H          0.23382400       0.70749700       0.05207100
   225  C          0.34889190       0.81374110       0.46764000
   226  C          0.65110810       0.31374110       0.03236000
   227  C          0.65110810       0.18625890       0.53236000
   228  C          0.34889190       0.68625890       0.96764000
   229  H          0.38469200       0.78174800       0.50461100
   230  H          0.61530800       0.28174800      -0.00461100
   231  H          0.61530800       0.21825200       0.49538900
   232  H          0.38469200       0.71825200       0.00461100
   233  H          0.36556200       0.84248700       0.54634000
   234  H          0.63443800       0.34248700       0.95366000
   235  H          0.63443800       0.15751300       0.45366000
   236  H          0.36556200       0.65751300       0.04634000
   237  H          0.36326900       0.82459700       0.36143700
   238  H          0.63673100       0.32459700       0.13856300
   239  H          0.63673100       0.17540300       0.63856300
   240  H          0.36326900       0.67540300       0.86143700
   241  C          0.18642000       0.84826130       0.39104000
   242  C          0.81358000       0.34826130       0.10896000
   243  C          0.81358000       0.15173870       0.60896000
   244  C          0.18642000       0.65173870       0.89104000
   245  H          0.19888600       0.85832100       0.28288800
   246  H          0.80111400       0.35832100       0.21711200
   247  H          0.80111400       0.14167900       0.71711200
   248  H          0.19888600       0.64167900       0.78288800
   249  H          0.20025500       0.87841900       0.46547600
   250  H          0.79974500       0.37841900       0.03452400
   251  H          0.79974500       0.12158100       0.53452400
   252  H          0.20025500       0.62158100       0.96547600
   253  H          0.12066200       0.83831200       0.38393500
   254  H          0.87933800       0.33831200       0.11606500
   255  H          0.87933800       0.16168800       0.61606500
   256  H          0.12066200       0.66168800       0.88393500
