data_LATFUJ
_symmetry_space_group_name_H-M    'P1'
_symmetry_Int_Tables_number       1
loop_
_symmetry_equiv_pos_site_id
_symmetry_equiv_pos_as_xyz
1 x,y,z
_cell_length_a                   8.12835
_cell_length_b                   13.86597
_cell_length_c                   14.94478
_cell_angle_alpha                90.0
_cell_angle_beta                 97.4733
_cell_angle_gamma                90.0
loop_
_atom_site_label
_atom_site_type_symbol
_atom_site_fract_x
_atom_site_fract_y
_atom_site_fract_z
     1  I          0.85086500       0.05052300       0.88676200
     2  I          0.64913500       0.55052300       0.61323800
     3  I          0.14913500       0.94947700       0.11323800
     4  I          0.35086500       0.44947700       0.38676200
     5  N          0.78167000       0.27206000       0.95173000
     6  N          0.71833000       0.77206000       0.54827000
     7  N          0.21833000       0.72794000       0.04827000
     8  N          0.28167000       0.22794000       0.45173000
     9  O          0.14037000       0.35774000       0.61493000
    10  O          0.35963000       0.85774000       0.88507000
    11  O          0.85963000       0.64226000       0.38507000
    12  O          0.64037000       0.14226000       0.11493000
    13  C          0.85556000       0.27134000       0.87593000
    14  C          0.64444000       0.77134000       0.62407000
    15  C          0.14444000       0.72866000       0.12407000
    16  C          0.35556000       0.22866000       0.37593000
    17  O          0.13887000       0.20244000       0.61333000
    18  O          0.36113000       0.70244000       0.88667000
    19  O          0.86113000       0.79756000       0.38667000
    20  O          0.63887000       0.29756000       0.11333000
    21  C          0.89966000       0.18633000       0.83423000
    22  C          0.60034000       0.68633000       0.66577000
    23  C          0.10034000       0.81367000       0.16577000
    24  C          0.39966000       0.31367000       0.33423000
    25  C          0.97976000       0.19013000       0.75943000
    26  C          0.52024000       0.69013000       0.74057000
    27  C          0.02024000       0.80987000       0.24057000
    28  C          0.47976000       0.30987000       0.25943000
    29  H          0.00940000       0.13350000       0.73230000
    30  H          0.49060000       0.63350000       0.76770000
    31  H         -0.00940000       0.86650000       0.26770000
    32  H          0.50940000       0.36650000       0.23230000
    33  C          0.01686000       0.27894000       0.72393000
    34  C          0.48314000       0.77894000       0.77607000
    35  C         -0.01686000       0.72106000       0.27607000
    36  C          0.51686000       0.22106000       0.22393000
    37  N          0.10336000       0.28024000       0.64553000
    38  N          0.39664000       0.78024000       0.85447000
    39  N          0.89664000       0.71976000       0.35447000
    40  N          0.60336000       0.21976000       0.14553000
    41  C          0.89137000       0.35974000       0.83694000
    42  C          0.60863000       0.85974000       0.66306000
    43  C          0.10863000       0.64026000       0.16306000
    44  C          0.39137000       0.14026000       0.33694000
    45  H          0.86000000       0.41670000       0.86280000
    46  H          0.64000000       0.91670000       0.63720000
    47  H          0.14000000       0.58330000       0.13720000
    48  H          0.36000000       0.08330000       0.36280000
    49  C          0.97117000       0.36423000       0.76194000
    50  C          0.52883000       0.86423000       0.73806000
    51  C          0.02883000       0.63577000       0.23806000
    52  C          0.47117000       0.13577000       0.26194000
    53  H         -0.00590000       0.42340000       0.73690000
    54  H          0.50590000       0.92340000       0.76310000
    55  H          0.00590000       0.57660000       0.26310000
    56  H          0.49410000       0.07660000       0.23690000
    57  H          0.77511000       0.22270000       0.96860000
    58  H          0.72489000       0.72270000       0.53140000
    59  H          0.22489000       0.77730000       0.03140000
    60  H          0.27511000       0.27730000       0.46860000
    61  H          0.75690000       0.32560000       0.96950000
    62  H          0.74310000       0.82560000       0.53050000
    63  H          0.24310000       0.67440000       0.03050000
    64  H          0.25690000       0.17440000       0.46950000
    65  O          0.07305000       0.76733000       0.68913000
    66  O          0.42695000       0.26733000       0.81087000
    67  O          0.92695000       0.23267000       0.31087000
    68  O          0.57305000       0.73267000       0.18913000
    69  O          0.26465000       0.98413000       0.49683000
    70  O          0.23535000       0.48413000       0.00317000
    71  O          0.73535000       0.01587000       0.50317000
    72  O          0.76465000       0.51587000      -0.00317000
    73  N          0.16355000       0.87433000       0.58963000
    74  N          0.33645000       0.37433000       0.91037000
    75  N          0.83645000       0.12567000       0.41037000
    76  N          0.66355000       0.62567000       0.08963000
    77  C          0.29096000       0.81693000       0.46923000
    78  C          0.20904000       0.31693000       0.03077000
    79  C          0.70904000       0.18307000       0.53077000
    80  C          0.79096000       0.68307000       0.96923000
    81  N          0.37645000       0.80733000       0.39603000
    82  N          0.12355000       0.30733000       0.10397000
    83  N          0.62355000       0.19267000       0.60397000
    84  N          0.87645000       0.69267000       0.89603000
    85  N          0.31406000       0.65843000       0.44013000
    86  N          0.18594000       0.15843000       0.05987000
    87  N          0.68594000       0.34157000       0.55987000
    88  N          0.81406000       0.84157000       0.94013000
    89  C          0.13396000       0.78114000       0.62033000
    90  C          0.36604000       0.28114000       0.87967000
    91  C          0.86604000       0.21886000       0.37967000
    92  C          0.63396000       0.71886000       0.12033000
    93  C          0.24286000       0.90044000       0.51523000
    94  C          0.25714000       0.40044000       0.98477000
    95  C          0.75714000       0.09956000       0.48477000
    96  C          0.74286000       0.59956000       0.01523000
    97  C          0.44797000       0.88234000       0.34514000
    98  C          0.05203000       0.38234000       0.15486000
    99  C          0.55203000       0.11766000       0.65486000
   100  C          0.94797000       0.61766000       0.84514000
   101  H          0.50870000       0.85320000       0.30130000
   102  H         -0.00870000       0.35320000       0.19870000
   103  H          0.49130000       0.14680000       0.69870000
   104  H          0.00870000       0.64680000       0.80130000
   105  H          0.52140000       0.92140000       0.38550000
   106  H          0.97860000       0.42140000       0.11450000
   107  H          0.47860000       0.07860000       0.61450000
   108  H          0.02140000       0.57860000       0.88550000
   109  H          0.36080000       0.92180000       0.31500000
   110  H          0.13920000       0.42180000       0.18500000
   111  H          0.63920000       0.07820000       0.68500000
   112  H          0.86080000       0.57820000       0.81500000
   113  C          0.38737000       0.71164000       0.38174000
   114  C          0.11263000       0.21164000       0.11826000
   115  C          0.61263000       0.28836000       0.61826000
   116  C          0.88737000       0.78836000       0.88174000
   117  C          0.25696000       0.72544000       0.49393000
   118  C          0.24304000       0.22544000       0.00607000
   119  C          0.74304000       0.27456000       0.50607000
   120  C          0.75696000       0.77456000      -0.00607000
   121  N          0.17815000       0.70543000       0.56823000
   122  N          0.32185000       0.20543000       0.93177000
   123  N          0.82185000       0.29457000       0.43177000
   124  N          0.67815000       0.79457000       0.06823000
   125  C          0.14768000       0.60604000       0.59364000
   126  C          0.35232000       0.10604000       0.90636000
   127  C          0.85232000       0.39396000       0.40636000
   128  C          0.64768000       0.89396000       0.09364000
   129  H          0.22030000       0.58960000       0.64730000
   130  H          0.27970000       0.08960000       0.85270000
   131  H          0.77970000       0.41040000       0.35270000
   132  H          0.72030000       0.91040000       0.14730000
   133  H          0.16780000       0.56350000       0.54560000
   134  H          0.33220000       0.06350000       0.95440000
   135  H          0.83220000       0.43650000       0.45440000
   136  H          0.66780000       0.93650000       0.04560000
   137  H          0.03440000       0.59950000       0.60480000
   138  H          0.46560000       0.09950000       0.89520000
   139  H          0.96560000       0.40050000       0.39520000
   140  H          0.53440000       0.90050000       0.10480000
   141  C          0.10879000       0.95324000       0.64545000
   142  C          0.39121000       0.45324000       0.85455000
   143  C          0.89121000       0.04676000       0.35455000
   144  C          0.60879000       0.54676000       0.14545000
   145  H          0.14240000       0.01400000       0.62300000
   146  H          0.35760000       0.51400000       0.87700000
   147  H          0.85760000       0.98600000       0.37700000
   148  H          0.64240000       0.48600000       0.12300000
   149  H          0.15800000       0.94510000       0.70680000
   150  H          0.34200000       0.44510000       0.79320000
   151  H          0.84200000       0.05490000       0.29320000
   152  H          0.65800000       0.55490000       0.20680000
   153  H         -0.01000000       0.95170000       0.64240000
   154  H          0.51000000       0.45170000       0.85760000
   155  H          0.01000000       0.04830000       0.35760000
   156  H          0.49000000       0.54830000       0.14240000
   157  H          0.45460000       0.68740000       0.33840000
   158  H          0.04540000       0.18740000       0.16160000
   159  H          0.54540000       0.31260000       0.66160000
   160  H          0.95460000       0.81260000       0.83840000
