data_LATHIZ
_symmetry_space_group_name_H-M    'P1'
_symmetry_Int_Tables_number       1
loop_
_symmetry_equiv_pos_site_id
_symmetry_equiv_pos_as_xyz
1 x,y,z
_cell_length_a                   12.56526
_cell_length_b                   8.14754
_cell_length_c                   16.52668
_cell_angle_alpha                90.0
_cell_angle_beta                 93.6882
_cell_angle_gamma                90.0
loop_
_atom_site_label
_atom_site_type_symbol
_atom_site_fract_x
_atom_site_fract_y
_atom_site_fract_z
     1  F          0.13483120       0.15032190       0.93716300
     2  F          0.86516880       0.65032190       0.56283700
     3  F          0.86516880       0.84967810       0.06283700
     4  F          0.13483120       0.34967810       0.43716300
     5  O          0.27617120       0.95878000       0.01339900
     6  O          0.72382880       0.45878000       0.48660100
     7  O          0.72382880       0.04122000       0.98660100
     8  O          0.27617120       0.54122000       0.51339900
     9  O         -0.00302000       0.17225000       0.28933140
    10  O          0.00302000       0.67225000       0.21066860
    11  O          0.00302000       0.82775000       0.71066860
    12  O         -0.00302000       0.32775000       0.78933140
    13  O          0.31170110       0.02482000       0.14215900
    14  O          0.68829890       0.52482000       0.35784100
    15  O          0.68829890       0.97518000       0.85784100
    16  O          0.31170110       0.47518000       0.64215900
    17  O          0.86336850       0.28733000       0.22830150
    18  O          0.13663150       0.78733000       0.27169850
    19  O          0.13663150       0.71267000       0.77169850
    20  O          0.86336850       0.21267000       0.72830150
    21  N          0.95081830       0.22463000       0.22909150
    22  N          0.04918170       0.72463000       0.27090850
    23  N          0.04918170       0.77537000       0.77090850
    24  N          0.95081830       0.27537000       0.72909150
    25  C          0.00211150       0.20953000       0.15179130
    26  C         -0.00211150       0.70953000       0.34820870
    27  C         -0.00211150       0.79047000       0.84820870
    28  C          0.00211150       0.29047000       0.65179130
    29  C          0.10009140       0.13322000       0.15148110
    30  C          0.89990860       0.63322000       0.34851890
    31  C          0.89990860       0.86678000       0.84851890
    32  C          0.10009140       0.36678000       0.65148110
    33  H          0.13420000       0.09660000       0.19980000
    34  H          0.86580000       0.59660000       0.30020000
    35  H          0.86580000       0.90340000       0.80020000
    36  H          0.13420000       0.40340000       0.69980000
    37  C          0.14742130       0.11142000       0.07885100
    38  C          0.85257870       0.61142000       0.42114900
    39  C          0.85257870       0.88858000       0.92114900
    40  C          0.14742130       0.38858000       0.57885100
    41  C          0.25401130       0.02742000       0.08171110
    42  C          0.74598870       0.52742000       0.41828890
    43  C          0.74598870       0.97258000       0.91828890
    44  C          0.25401130       0.47258000       0.58171110
    45  C          0.09287150       0.16922000       0.00898120
    46  C          0.90712850       0.66922000       0.49101880
    47  C          0.90712850       0.83078000       0.99101880
    48  C          0.09287150       0.33078000       0.50898120
    49  C         -0.00359170       0.24933000       0.01003140
    50  C          0.00359170       0.74933000       0.48996860
    51  C          0.00359170       0.75067000       0.98996860
    52  C         -0.00359170       0.25067000       0.51003140
    53  H          0.96330000       0.28970000       0.96220000
    54  H          0.03670000       0.78970000       0.53780000
    55  H          0.03670000       0.71030000       0.03780000
    56  H          0.96330000       0.21030000       0.46220000
    57  C          0.94985840       0.26893000       0.08153150
    58  C          0.05014160       0.76893000       0.41846850
    59  C          0.05014160       0.73107000       0.91846850
    60  C          0.94985840       0.23107000       0.58153150
    61  H          0.88430000       0.32130000       0.08310000
    62  H          0.11570000       0.82130000       0.41690000
    63  H          0.11570000       0.67870000       0.91690000
    64  H          0.88430000       0.17870000       0.58310000
    65  H          0.34830000       0.90660000       0.01851700
    66  H          0.65170000       0.40660000       0.48148300
    67  H          0.65170000       0.09340000       0.98148300
    68  H          0.34830000       0.59340000       0.51851700
    69  O          0.45069120       0.07193180       0.71639700
    70  O          0.54930880       0.57193180       0.78360300
    71  O          0.54930880       0.92806820       0.28360300
    72  O          0.45069120       0.42806820       0.21639700
    73  N          0.53736110       0.30441180       0.46956800
    74  N          0.46263890       0.80441180       0.03043200
    75  N          0.46263890       0.69558820       0.53043200
    76  N          0.53736110       0.19558820       0.96956800
    77  O          0.23297110      -0.00582000       0.48794800
    78  O          0.76702890       0.49418000       0.01205200
    79  O          0.76702890       0.00582000       0.51205200
    80  O          0.23297110       0.50582000       0.98794800
    81  N          0.50174110       0.19122170       0.60134800
    82  N          0.49825890       0.69122170       0.89865200
    83  N          0.49825890       0.80877830       0.39865200
    84  N          0.50174110       0.30877830       0.10134800
    85  N          0.39288110       0.20731170       0.40063800
    86  N          0.60711890       0.70731170       0.09936200
    87  N          0.60711890       0.79268830       0.59936200
    88  N          0.39288110       0.29268830       0.90063800
    89  C          0.48232140       0.29462000       0.39801100
    90  C          0.51767860       0.79462000       0.10198900
    91  C          0.51767860       0.70538000       0.60198900
    92  C          0.48232140       0.20538000       0.89801100
    93  N          0.34102110       0.03971170       0.60241800
    94  N          0.65897890       0.53971170       0.89758200
    95  N          0.65897890       0.96028830       0.39758200
    96  N          0.34102110       0.46028830       0.10241800
    97  C          0.43258140       0.10022000       0.64451900
    98  C          0.56741860       0.60022000       0.85548100
    99  C          0.56741860       0.89978000       0.35548100
   100  C          0.43258140       0.39978000       0.14451900
   101  C          0.47765120       0.21831180       0.52018900
   102  C          0.52234880       0.71831180       0.97981100
   103  C          0.52234880       0.78168820       0.47981100
   104  C          0.47765120       0.28168820       0.02018900
   105  C          0.38797130       0.15656190       0.48042900
   106  C          0.61202870       0.65656190       0.01957100
   107  C          0.61202870       0.84343810       0.51957100
   108  C          0.38797130       0.34343810       0.98042900
   109  C          0.31413170       0.17613000       0.33315100
   110  C          0.68586830       0.67613000       0.16684900
   111  C          0.68586830       0.82387000       0.66684900
   112  C          0.31413170       0.32387000       0.83315100
   113  H          0.27540000       0.27520000       0.32010000
   114  H          0.72460000       0.77520000       0.17990000
   115  H          0.72460000       0.72480000       0.67990000
   116  H          0.27540000       0.22480000       0.82010000
   117  H          0.26550000       0.09250000       0.34840000
   118  H          0.73450000       0.59250000       0.15160000
   119  H          0.73450000       0.90750000       0.65160000
   120  H          0.26550000       0.40750000       0.84840000
   121  H          0.34990000       0.14030000       0.28670000
   122  H          0.65010000       0.64030000       0.21330000
   123  H          0.65010000       0.85970000       0.71330000
   124  H          0.34990000       0.35970000       0.78670000
   125  C          0.59684160       0.26303000       0.64316120
   126  C          0.40315840       0.76303000       0.85683880
   127  C          0.40315840       0.73697000       0.35683880
   128  C          0.59684160       0.23697000       0.14316120
   129  H          0.65520000       0.25790000       0.60850000
   130  H          0.34480000       0.75790000       0.89150000
   131  H          0.34480000       0.74210000       0.39150000
   132  H          0.65520000       0.24210000       0.10850000
   133  H          0.61470000       0.20280000       0.69210000
   134  H          0.38530000       0.70280000       0.80790000
   135  H          0.38530000       0.79720000       0.30790000
   136  H          0.61470000       0.29720000       0.19210000
   137  H          0.58290000       0.37540000       0.65630000
   138  H          0.41710000       0.87540000       0.84370000
   139  H          0.41710000       0.62460000       0.34370000
   140  H          0.58290000       0.12460000       0.15630000
   141  C          0.31315140       0.05822000       0.51934100
   142  C          0.68684860       0.55822000       0.98065900
   143  C          0.68684860       0.94178000       0.48065900
   144  C          0.31315140       0.44178000       0.01934100
   145  C          0.26796180       0.94337000       0.64993130
   146  C          0.73203820       0.44337000       0.85006870
   147  C          0.73203820       0.05663000       0.35006870
   148  C          0.26796180       0.55663000       0.14993130
   149  H          0.29290000       0.83210000       0.65440000
   150  H          0.70710000       0.33210000       0.84560000
   151  H          0.70710000       0.16790000       0.34560000
   152  H          0.29290000       0.66790000       0.15440000
   153  H          0.19780000       0.94500000       0.62330000
   154  H          0.80220000       0.44500000       0.87670000
   155  H          0.80220000       0.05500000       0.37670000
   156  H          0.19780000       0.55500000       0.12330000
   157  H          0.26560000      -0.00980000       0.70310000
   158  H          0.73440000       0.49020000       0.79690000
   159  H          0.73440000       0.00980000       0.29690000
   160  H          0.26560000       0.50980000       0.20310000
   161  H          0.50721600       0.34120000       0.34791200
   162  H          0.49278400       0.84120000       0.15208800
   163  H          0.49278400       0.65880000       0.65208800
   164  H          0.50721600       0.15880000       0.84791200
