data_LATKUO
_symmetry_space_group_name_H-M    'P1'
_symmetry_Int_Tables_number       1
loop_
_symmetry_equiv_pos_site_id
_symmetry_equiv_pos_as_xyz
1 x,y,z
_cell_length_a                   11.27935
_cell_length_b                   3.74522
_cell_length_c                   29.828215
_cell_angle_alpha                90.0
_cell_angle_beta                 93.5674
_cell_angle_gamma                90.0
loop_
_atom_site_label
_atom_site_type_symbol
_atom_site_fract_x
_atom_site_fract_y
_atom_site_fract_z
     1  C          0.73688130       0.58654000       0.62374500
     2  C          0.76311870       0.08654000       0.87625500
     3  C          0.26311870       0.41346000       0.37625500
     4  C          0.23688130       0.91346000       0.12374500
     5  C          0.65168140       0.63894000       0.58862500
     6  C          0.84831860       0.13894000       0.91137500
     7  C          0.34831860       0.36106000       0.41137500
     8  C          0.15168140       0.86106000       0.08862500
     9  H          0.57580000       0.73400000       0.59410000
    10  H          0.92420000       0.23400000       0.90590000
    11  H          0.42420000       0.26600000       0.40590000
    12  H          0.07580000       0.76600000       0.09410000
    13  C          0.67968150       0.54975000       0.54547500
    14  C          0.82031850       0.04975000       0.95452500
    15  C          0.32031850       0.45025000       0.45452500
    16  C          0.17968150       0.95025000       0.04547500
    17  H          0.62160000       0.58630000       0.52150000
    18  H          0.87840000       0.08630000       0.97850000
    19  H          0.37840000       0.41370000       0.47850000
    20  H          0.12160000       0.91370000       0.02150000
    21  C          0.86673140       0.36465000       0.57012500
    22  C          0.63326860       0.86465000       0.92987500
    23  C          0.13326860       0.63535000       0.42987500
    24  C          0.36673140       0.13535000       0.07012500
    25  H          0.94180000       0.26910000       0.56370000
    26  H          0.55820000       0.76910000       0.93630000
    27  H          0.05820000       0.73090000       0.43630000
    28  H          0.44180000       0.23090000       0.06370000
    29  C          0.84607140       0.44714000       0.61408500
    30  C          0.65392860       0.94714000       0.88591500
    31  C          0.15392860       0.55286000       0.38591500
    32  C          0.34607140       0.05286000       0.11408500
    33  H          0.90600000       0.40860000       0.63740000
    34  H          0.59400000       0.90860000       0.86260000
    35  H          0.09400000       0.59140000       0.36260000
    36  H          0.40600000       0.09140000       0.13740000
    37  C          0.71770140       0.68624000       0.67169500
    38  C          0.78229860       0.18624000       0.82830500
    39  C          0.28229860       0.31376000       0.32830500
    40  C          0.21770140       0.81376000       0.17169500
    41  N          0.60725120       0.64424000       0.68426400
    42  N          0.89274880       0.14424000       0.81573600
    43  N          0.39274880       0.35576000       0.31573600
    44  N          0.10725120       0.85576000       0.18426400
    45  H          0.55091800       0.54560000       0.66487000
    46  H          0.94908200       0.04560000       0.83513000
    47  H          0.44908200       0.45440000       0.33513000
    48  H          0.05091800       0.95440000       0.16487000
    49  N          0.78487120       0.41444000       0.53624400
    50  N          0.71512880       0.91444000       0.96375600
    51  N          0.21512880       0.58556000       0.46375600
    52  N          0.28487120       0.08556000       0.03624400
    53  N          0.57398140       0.71715000       0.72830500
    54  N          0.92601860       0.21715000       0.77169500
    55  N          0.42601860       0.28285000       0.27169500
    56  N          0.07398140       0.78285000       0.22830500
    57  H          0.58131900       0.95370000       0.73347000
    58  H          0.91868100       0.45370000       0.76653000
    59  H          0.41868100       0.04630000       0.26653000
    60  H          0.08131900       0.54630000       0.23347000
    61  H          0.63191900       0.62060000       0.74797000
    62  H          0.86808100       0.12060000       0.75203000
    63  H          0.36808100       0.37940000       0.25203000
    64  H          0.13191900       0.87940000       0.24797000
    65  O          0.80028100       0.79364000       0.69670400
    66  O          0.69971900       0.29364000       0.80329600
    67  O          0.19971900       0.20636000       0.30329600
    68  O          0.30028100       0.70636000       0.19670400
    69  C          0.76960130      -0.01174000       0.38580500
    70  C          0.73039870       0.48826000       0.11419500
    71  C          0.23039870       0.01174000       0.61419500
    72  C          0.26960130       0.51174000       0.88580500
    73  C          0.87864130       0.06674000       0.36824500
    74  C          0.62135870       0.56674000       0.13175500
    75  C          0.12135870       0.93326000       0.63175500
    76  C          0.37864130       0.43326000       0.86824500
    77  H          0.93890000       0.18190000       0.38660000
    78  H          0.56110000       0.68190000       0.11340000
    79  H          0.06110000       0.81810000       0.61340000
    80  H          0.43890000       0.31810000       0.88660000
    81  C          0.89978140      -0.02134000       0.32449500
    82  C          0.60021860       0.47866000       0.17550500
    83  C          0.10021860       0.02134000       0.67550500
    84  C          0.39978140       0.52134000       0.82449500
    85  H          0.97430000       0.03130000       0.31290000
    86  H          0.52570000       0.53130000       0.18710000
    87  H          0.02570000      -0.03130000       0.68710000
    88  H          0.47430000       0.46870000       0.81290000
    89  C          0.81127140       0.81306000       0.29772500
    90  C          0.68872860       0.31306000       0.20227500
    91  C          0.18872860       0.18694000       0.70227500
    92  C          0.31127140       0.68694000       0.79772500
    93  H          0.82600000       0.75000000       0.26770000
    94  H          0.67400000       0.25000000       0.23230000
    95  H          0.17400000       0.25000000       0.73230000
    96  H          0.32600000       0.75000000       0.76770000
    97  C          0.70204140       0.73846000       0.31391500
    98  C          0.79795860       0.23846000       0.18608500
    99  C          0.29795860       0.26154000       0.68608500
   100  C          0.20204140       0.76154000       0.81391500
   101  H          0.64140000       0.63010000       0.29500000
   102  H          0.85860000       0.13010000       0.20500000
   103  H          0.35860000       0.36990000       0.70500000
   104  H          0.14140000       0.86990000       0.79500000
   105  C          0.68145130       0.82316000       0.35816500
   106  C          0.81854870       0.32316000       0.14183500
   107  C          0.31854870       0.17684000       0.64183500
   108  C          0.18145130       0.67684000       0.85816500
   109  C          0.74590140       0.08364000       0.43251500
   110  C          0.75409860       0.58364000       0.06748500
   111  C          0.25409860       0.91636000       0.56748500
   112  C          0.24590140       0.41636000       0.93251500
   113  O          0.83334100       0.23813000       0.45547400
   114  O          0.66665900       0.73813000       0.04452600
   115  O          0.16665900       0.76187000       0.54452600
   116  O          0.33334100       0.26187000       0.95547400
   117  H          0.80871800       0.29960000       0.48427000
   118  H          0.69128200       0.79960000       0.01573000
   119  H          0.19128200       0.70040000       0.51573000
   120  H          0.30871800       0.20040000       0.98427000
   121  O          0.64897100       0.01954000       0.44823400
   122  O          0.85102900       0.51954000       0.05176600
   123  O          0.35102900      -0.01954000       0.55176600
   124  O          0.14897100       0.48046000       0.94823400
   125  O          0.57376900       0.73757000       0.37375400
   126  O          0.92623100       0.23757000       0.12624600
   127  O          0.42623100       0.26243000       0.62624600
   128  O          0.07376900       0.76243000       0.87375400
   129  H          0.58571800       0.81340000       0.40327000
   130  H          0.91428200       0.31340000       0.09673000
   131  H          0.41428200       0.18660000       0.59673000
   132  H          0.08571800       0.68660000       0.90327000
