data_LATQEE
_symmetry_space_group_name_H-M    'P1'
_symmetry_Int_Tables_number       1
loop_
_symmetry_equiv_pos_site_id
_symmetry_equiv_pos_as_xyz
1 x,y,z
_cell_length_a                   7.3634
_cell_length_b                   12.2926
_cell_length_c                   12.3056
_cell_angle_alpha                118.5718
_cell_angle_beta                 90.1449
_cell_angle_gamma                98.0238
loop_
_atom_site_label
_atom_site_type_symbol
_atom_site_fract_x
_atom_site_fract_y
_atom_site_fract_z
     1  C          0.22065190       0.32132130       0.29182130
     2  C          0.77934810       0.67867870       0.70817870
     3  N          0.31174150       0.24255110       0.20042110
     4  N          0.68825850       0.75744890       0.79957890
     5  H          0.41670000       0.27610000       0.18660000
     6  H          0.58330000       0.72390000       0.81340000
     7  C          0.25853180       0.11112130       0.12320130
     8  C          0.74146820       0.88887870       0.87679870
     9  C          0.19602180       0.03219130       0.17195130
    10  C          0.80397820       0.96780870       0.82804870
    11  N          0.16634150       0.08343110       0.30023110
    12  N          0.83365850       0.91656890       0.69976890
    13  C          0.03318180       0.16357130       0.34272120
    14  C          0.96681820       0.83642870       0.65727880
    15  C          0.05266180       0.27292130       0.33221120
    16  C          0.94733820       0.72707870       0.66778880
    17  O          0.27230140       0.43621900       0.34365100
    18  O          0.72769860       0.56378100       0.65634900
    19  C          0.91546810       0.34738140       0.37390130
    20  C          0.08453190       0.65261860       0.62609870
    21  H          0.92550000       0.42260000       0.36860000
    22  H          0.07450000       0.57740000       0.63140000
    23  C          0.76414810       0.31189140       0.42315130
    24  C          0.23585190       0.68810860       0.57684870
    25  H          0.66490000       0.35820000       0.44690000
    26  H          0.33510000       0.64180000       0.55310000
    27  C          0.76361810       0.20670140       0.43627130
    28  C          0.23638190       0.79329860       0.56372870
    29  H          0.66470000       0.18500000       0.47530000
    30  H          0.33530000       0.81500000       0.52470000
    31  N          0.89377840       0.13280110       0.39754110
    32  N          0.10622160       0.86719890       0.60245890
    33  N          0.16181160       0.90786890       0.10423110
    34  N          0.83818840       0.09213110       0.89576890
    35  C          0.19152190       0.85852860       0.98345860
    36  C          0.80847810       0.14147140       0.01654140
    37  H          0.17330000       0.76970000       0.93430000
    38  H          0.82670000       0.23030000       0.06570000
    39  C          0.24690190       0.92943860       0.92684860
    40  C          0.75309810       0.07056140       0.07315140
    41  H          0.26240000       0.88940000       0.84040000
    42  H          0.73760000       0.11060000       0.15960000
    43  C          0.28005180       0.05930140      -0.00398130
    44  C          0.71994820       0.94069860       0.00398130
    45  C          0.33632000       0.14025150       0.93744860
    46  C          0.66368000       0.85974850       0.06255140
    47  H          0.46360000       0.18230000       0.96680000
    48  H          0.53640000       0.81770000       0.03320000
    49  H          0.25510000       0.20340000       0.96040000
    50  H          0.74490000       0.79660000       0.03960000
    51  H          0.32700000       0.08790000       0.84700000
    52  H          0.67300000       0.91210000       0.15300000
    53  C          0.17282000       0.00147140       0.35365140
    54  C          0.82718000      -0.00147140       0.64634860
    55  H          0.06490000       0.93390000       0.33360000
    56  H          0.93510000       0.06610000       0.66640000
    57  C          0.35942000       0.97317860       0.36802140
    58  C          0.64058000       0.02682140       0.63197860
    59  H          0.46370000       0.00980000       0.33880000
    60  H          0.53630000      -0.00980000       0.66120000
    61  H          0.36790000       0.88900000       0.35740000
    62  H          0.63210000       0.11100000       0.64260000
    63  C          0.27112000       0.06143150       0.48012140
    64  C          0.72888000       0.93856850       0.51987860
    65  H          0.22540000       0.03130000       0.53820000
    66  H          0.77460000       0.96870000       0.46180000
    67  H          0.32120000       0.15210000       0.51960000
    68  H          0.67880000       0.84790000       0.48040000
    69  O          0.57066150       0.57881100       0.34751110
    70  O          0.42933850       0.42118900       0.65248890
    71  H          0.47620000       0.52800000       0.34010000
    72  H          0.52380000       0.47200000       0.65990000
    73  O          0.64563140       0.41051100       0.18559100
    74  O          0.35436860       0.58948900       0.81440900
    75  C          0.68192190       0.52011140       0.26148140
    76  C          0.31807810       0.47988860       0.73851860
    77  C          0.85572000       0.60493140       0.26959150
    78  C          0.14428000       0.39506860       0.73040850
    79  H          0.91190000       0.64850000       0.35600000
    80  H          0.08810000       0.35150000       0.64400000
    81  H          0.82360000       0.66970000       0.25020000
    82  H          0.17640000       0.33030000       0.74980000
    83  C         -0.00266810       0.53738140       0.18285140
    84  C          0.00266810       0.46261860       0.81714860
    85  H          0.03320000       0.47410000       0.20320000
    86  H          0.96680000       0.52590000       0.79680000
    87  H          0.94210000       0.49280000       0.09620000
    88  H          0.05790000       0.50720000       0.90380000
    89  C          0.16742000       0.62890150       0.19408150
    90  C          0.83258000       0.37109850       0.80591850
    91  H          0.12960000       0.69290000       0.17550000
    92  H          0.87040000       0.30710000       0.82450000
    93  H          0.22170000       0.67270000       0.28100000
    94  H          0.77830000       0.32730000       0.71900000
    95  C          0.31205190       0.56888150       0.10986140
    96  C          0.68794810       0.43111850       0.89013860
    97  O          0.29306140       0.45792100       0.03405110
    98  O          0.70693860       0.54207900       0.96594890
    99  O          0.46155150       0.64897100       0.12503110
   100  O          0.53844850       0.35102900       0.87496890
   101  H          0.53580000       0.61170000       0.07340000
   102  H          0.46420000       0.38830000       0.92660000
