data_LATTAD
_symmetry_space_group_name_H-M    'P1'
_symmetry_Int_Tables_number       1
loop_
_symmetry_equiv_pos_site_id
_symmetry_equiv_pos_as_xyz
1 x,y,z
_cell_length_a                   8.13393
_cell_length_b                   8.74244
_cell_length_c                   12.47795
_cell_angle_alpha                90.0
_cell_angle_beta                 96.9334
_cell_angle_gamma                90.0
loop_
_atom_site_label
_atom_site_type_symbol
_atom_site_fract_x
_atom_site_fract_y
_atom_site_fract_z
     1  C          0.54486170       0.87454160       0.78858110
     2  C          0.95513830       0.37454160       0.71141890
     3  C          0.45513830       0.12545840       0.21141890
     4  C          0.04486170       0.62545840       0.28858110
     5  C          0.46351160       0.74884150       0.84610110
     6  C          0.03648840       0.24884150       0.65389890
     7  C          0.53648840       0.25115850       0.15389890
     8  C          0.96351160       0.75115850       0.34610110
     9  C          0.47321180       0.60061170       0.80803110
    10  C          0.02678820       0.10061170       0.69196890
    11  C          0.52678820       0.39938830       0.19196890
    12  C          0.97321180       0.89938830       0.30803110
    13  H          0.53490000       0.57930000       0.75180000
    14  H          0.96510000       0.07930000       0.74820000
    15  H          0.46510000       0.42070000       0.24820000
    16  H          0.03490000       0.92070000       0.25180000
    17  C          0.39043190       0.48476170       0.85437120
    18  C          0.10956810      -0.01523830       0.64562880
    19  C          0.60956810       0.51523830       0.14562880
    20  C          0.89043190       0.01523830       0.35437120
    21  H          0.39570000       0.38580000       0.82760000
    22  H          0.10430000       0.88580000       0.67240000
    23  H          0.60430000       0.61420000       0.17240000
    24  H          0.89570000       0.11420000       0.32760000
    25  C          0.29797180       0.65266170       0.97664120
    26  C          0.20202820       0.15266170       0.52335880
    27  C          0.70202820       0.34733830       0.02335880
    28  C          0.79797180       0.84733830       0.47664120
    29  H          0.23990000       0.66970000       0.03530000
    30  H          0.26010000       0.16970000       0.46470000
    31  H          0.76010000       0.33030000       0.96470000
    32  H          0.73990000       0.83030000       0.53530000
    33  C          0.37600170       0.77379170       0.93372110
    34  C          0.12399830       0.27379170       0.56627890
    35  C          0.62399830       0.22620830       0.06627890
    36  C          0.87600170       0.72620830       0.43372110
    37  H          0.37030000       0.87120000       0.96290000
    38  H          0.12970000       0.37120000       0.53710000
    39  H          0.62970000       0.12880000       0.03710000
    40  H          0.87030000       0.62880000       0.46290000
    41  H          0.40620000       0.03420000       0.84111400
    42  H          0.09380000       0.53420000       0.65888600
    43  H          0.59380000       0.96580000       0.15888600
    44  H          0.90620000       0.46580000       0.34111400
    45  H          0.64330000       0.16820000       0.77791600
    46  H          0.85670000       0.66820000       0.72208400
    47  H          0.35670000       0.83180000       0.22208400
    48  H          0.14330000       0.33180000       0.27791600
    49  H          0.54420000       0.11520000       0.67951600
    50  H          0.95580000       0.61520000       0.82048400
    51  H          0.45580000       0.88480000       0.32048400
    52  H          0.04420000       0.38480000       0.17951600
    53  N          0.54192000       0.14518160       0.74802140
    54  N          0.95808000       0.64518160       0.75197860
    55  N          0.45808000       0.85481840       0.25197860
    56  N          0.04192000       0.35481840       0.24802140
    57  N          0.49186160       0.01640140       0.80490100
    58  N          0.00813840       0.51640140       0.69509900
    59  N          0.50813840       0.98359860       0.19509900
    60  N         -0.00813840       0.48359860       0.30490100
    61  N          0.30319140       0.51090130       0.93643100
    62  N          0.19680860       0.01090130       0.56356900
    63  N          0.69680860       0.48909870       0.06356900
    64  N          0.80319140      -0.01090130       0.43643100
    65  O          0.64976160       0.84637130       0.72853100
    66  O          0.85023840       0.34637130       0.77146900
    67  O          0.35023840       0.15362870       0.27146900
    68  O          0.14976160       0.65362870       0.22853100
    69  C          0.13938170       0.17567150       0.98400110
    70  C          0.36061830       0.67567150       0.51599890
    71  C          0.86061830       0.82432850       0.01599890
    72  C          0.63938170       0.32432850       0.48400110
    73  C          0.01869170       0.06632160       0.02327110
    74  C          0.48130830       0.56632160       0.47672890
    75  C         -0.01869170       0.93367840       0.97672890
    76  C          0.51869170       0.43367840       0.52327110
    77  H          0.96770000       0.09320000       0.08340000
    78  H          0.53230000       0.59320000       0.41660000
    79  H          0.03230000       0.90680000       0.91660000
    80  H          0.46770000       0.40680000       0.58340000
    81  H          0.21530000       0.40030000       0.97541600
    82  H          0.28470000       0.90030000       0.52458400
    83  H          0.78470000       0.59970000       0.02458400
    84  H          0.71530000       0.09970000       0.47541600
    85  O          0.23929140       0.13592120       0.92396100
    86  O          0.26070860       0.63592120       0.57603900
    87  O          0.76070860       0.86407880       0.07603900
    88  O          0.73929140       0.36407880       0.42396100
    89  O          0.12529140       0.31364110       0.01814900
    90  O          0.37470860       0.81364110       0.48185100
    91  O          0.87470860       0.68635890       0.98185100
    92  O          0.62529140       0.18635890       0.51814900
