data_LEBPEP
_symmetry_space_group_name_H-M    'P1'
_symmetry_Int_Tables_number       1
loop_
_symmetry_equiv_pos_site_id
_symmetry_equiv_pos_as_xyz
1 x,y,z
_cell_length_a                   8.7797
_cell_length_b                   10.3781
_cell_length_c                   18.91616
_cell_angle_alpha                94.523
_cell_angle_beta                 92.302
_cell_angle_gamma                110.523
loop_
_atom_site_label
_atom_site_type_symbol
_atom_site_fract_x
_atom_site_fract_y
_atom_site_fract_z
     1  I          0.43384500       0.10303400       0.37318300
     2  I          0.56615500       0.89696600       0.62681700
     3  I          0.27956600       0.11011500       0.50506300
     4  I          0.72043400       0.88988500       0.49493700
     5  I          0.59650700       0.08248500       0.24272300
     6  I          0.40349300       0.91751500       0.75727700
     7  I          0.07488600       0.16173500       0.65296300
     8  I          0.92511400       0.83826500       0.34703700
     9  I          0.94136300       0.23500500       0.77285300
    10  I          0.05863700       0.76499500       0.22714700
    11  I          0.83694300       0.60837600       0.88464300
    12  I          0.16305700       0.39162400       0.11535700
    13  I          0.80158900       0.31820700       0.91800300
    14  I          0.19841100       0.68179300       0.08199700
    15  I          0.85064100       0.86761700       0.84116400
    16  I          0.14935900       0.13238300       0.15883600
    17  S          0.25762000       0.68360160       0.45163900
    18  S          0.74238000       0.31639840       0.54836100
    19  S          0.25132000       0.44198170       0.52301900
    20  S          0.74868000       0.55801830       0.47698100
    21  S          0.07512000       0.53963190       0.65200100
    22  S          0.92488000       0.46036810       0.34799900
    23  S          0.06512000       0.77070170       0.57755110
    24  S          0.93488000       0.22929830       0.42244890
    25  N          0.59918000       0.39806000       0.18483000
    26  N          0.40082000       0.60194000       0.81517000
    27  H          0.56230000       0.33700000       0.21560000
    28  H          0.43770000       0.66300000       0.78440000
    29  N          0.46867000       0.51765000       0.30343000
    30  N          0.53133000       0.48235000       0.69657000
    31  C          0.41838000       0.60887000       0.34234000
    32  C          0.58162000       0.39113000       0.65766000
    33  N          0.51087000       0.70806000       0.24823000
    34  N          0.48913000       0.29194000       0.75177000
    35  H          0.53990000       0.76620000       0.21550000
    36  H          0.46010000       0.23380000       0.78450000
    37  C          0.59419000       0.52337000       0.19004000
    38  C          0.40581000       0.47663000       0.80996000
    39  C          0.20467000       0.59056000       0.52453000
    40  C          0.79533000       0.40944000       0.47547000
    41  C          0.52468000       0.58327000       0.24694000
    42  C          0.47532000       0.41673000       0.75306000
    43  C          0.70841200       0.49129000       0.09205000
    44  C          0.29158800       0.50871000       0.90795000
    45  H          0.75810000       0.50680000       0.04820000
    46  H          0.24190000       0.49320000       0.95180000
    47  C          0.34237000       0.46396000       0.44213000
    48  C          0.65763000       0.53604000       0.55787000
    49  H          0.38600000       0.39890000       0.42180000
    50  H          0.61400000       0.60110000       0.57820000
    51  C          0.97431000       0.64308000       0.69084000
    52  C          0.02569000       0.35692000       0.30916000
    53  H          0.92340000       0.62450000       0.73410000
    54  H          0.07660000       0.37550000       0.26590000
    55  C          0.34787000       0.57457000       0.41033000
    56  C          0.65213000       0.42543000       0.58967000
    57  C          0.44348000       0.72727000       0.30954000
    58  C          0.55652000       0.27273000       0.69046000
    59  H          0.41880000       0.80590000       0.32630000
    60  H          0.58120000       0.19410000       0.67370000
    61  C          0.12568000       0.63066000       0.57884000
    62  C          0.87432000       0.36934000       0.42116000
    63  N          0.66329000       0.58457000       0.13323000
    64  N          0.33671000       0.41543000       0.86677000
    65  H          0.67700000       0.66960000       0.12420000
    66  H          0.32300000       0.33040000       0.87580000
    67  C          0.67151200       0.37649000       0.12325000
    68  C          0.32848800       0.62351000       0.87675000
    69  H          0.69050000       0.29480000       0.10680000
    70  H          0.30950000       0.70520000       0.89320000
    71  C          0.97341000       0.74938000       0.65574000
    72  C          0.02659000       0.25062000       0.34426000
    73  H          0.92320000       0.81130000       0.67370000
    74  H          0.07680000       0.18870000       0.32630000
    75  C          0.69420000       0.00181800       0.03761000
    76  C          0.30580000      -0.00181800       0.96239000
    77  H          0.57930000      -0.00920000       0.02770000
    78  H          0.42070000       0.00920000       0.97230000
    79  H          0.75520000       0.03560000      -0.00340000
    80  H          0.24480000       0.96440000       0.00340000
    81  H          0.73960000       0.06850000       0.07950000
    82  H          0.26040000       0.93150000       0.92050000
    83  C          0.70420000       0.87941700       0.05019000
    84  C          0.29580000       0.12058300       0.94981000
    85  H          0.79620000       0.86930000       0.02480000
    86  H          0.20380000       0.13070000       0.97520000
    87  H          0.60340000       0.80610000       0.02810000
    88  H          0.39660000       0.19390000       0.97190000
    89  O          0.72451000       0.85297000       0.12174000
    90  O          0.27549000       0.14703000       0.87826000
