data_LEDYUQ
_symmetry_space_group_name_H-M    'P1'
_symmetry_Int_Tables_number       1
loop_
_symmetry_equiv_pos_site_id
_symmetry_equiv_pos_as_xyz
1 x,y,z
_cell_length_a                   8.15472
_cell_length_b                   8.93212
_cell_length_c                   9.40282
_cell_angle_alpha                86.25801
_cell_angle_beta                 67.37601
_cell_angle_gamma                80.71901
loop_
_atom_site_label
_atom_site_type_symbol
_atom_site_fract_x
_atom_site_fract_y
_atom_site_fract_z
     1  O          0.76168140       0.35311120       0.48540140
     2  O          0.23831860       0.64688880       0.51459860
     3  H          0.86600000       0.31850000       0.42550000
     4  H          0.13400000       0.68150000       0.57450000
     5  O          0.70091140       0.13027120       0.44151140
     6  O          0.29908860       0.86972880       0.55848860
     7  O          0.74171860       0.13485130       0.96677140
     8  O          0.25828140       0.86514870       0.03322860
     9  H          0.63890000       0.17180000       0.02760000
    10  H          0.36110000       0.82820000       0.97240000
    11  O          0.79874860       0.37072120       0.96904140
    12  O          0.20125140       0.62927880       0.03095860
    13  C          0.65577170       0.25426150       0.50280150
    14  C          0.34422830       0.74573850       0.49719850
    15  C          0.46734180       0.30803160       0.60830160
    16  C          0.53265820       0.69196840       0.39169840
    17  H          0.43750000       0.41000000       0.64320000
    18  H          0.56250000       0.59000000       0.35680000
    19  C          0.33925170       0.22026150       0.65586150
    20  C          0.66074830       0.77973850       0.34413850
    21  H          0.36790000       0.11910000       0.61900000
    22  H          0.63210000       0.88090000       0.38100000
    23  C          0.15787170       0.27194160       0.76141150
    24  C          0.84212830       0.72805840       0.23858850
    25  H          0.12790000       0.37500000       0.79290000
    26  H          0.87210000       0.62500000       0.20710000
    27  C          0.03082180       0.18318160       0.81672160
    28  C          0.96917820       0.81681840       0.18327840
    29  H          0.05980000       0.08000000       0.78570000
    30  H          0.94020000       0.92000000       0.21430000
    31  C          0.84455820       0.23910160       0.92551160
    32  C          0.15544180       0.76089840       0.07448840
    33  N          0.08788140       0.27644120       0.31399130
    34  N          0.91211860       0.72355880       0.68600870
    35  N          0.41841140       0.22012130       0.14620130
    36  N          0.58158860       0.77987870       0.85379870
    37  C          0.11006180       0.27117170       0.15051160
    38  C          0.88993820       0.72882830       0.84948840
    39  H          0.05830000       0.37000000       0.11990000
    40  H          0.94170000       0.63000000       0.88010000
    41  H          0.04550000       0.19190000       0.13660000
    42  H          0.95450000       0.80810000       0.86340000
    43  C          0.31022190       0.23589170       0.04914160
    44  C          0.68977810       0.76410830       0.95085840
    45  H          0.33320000       0.14060000      -0.00810000
    46  H          0.66680000       0.85940000       0.00810000
    47  H          0.34540000       0.31870000       0.97330000
    48  H          0.65460000       0.68130000       0.02670000
    49  C          0.18363180       0.39594160       0.33479160
    50  C          0.81636820       0.60405840       0.66520840
    51  H          0.17060000       0.39820000       0.44380000
    52  H          0.82940000       0.60180000       0.55620000
    53  H          0.13020000       0.49630000       0.30870000
    54  H          0.86980000       0.50370000       0.69130000
    55  C          0.38327180       0.36395160       0.23055170
    56  C          0.61672820       0.63604840       0.76944830
    57  H          0.41590000       0.44840000       0.15630000
    58  H          0.58410000       0.55160000       0.84370000
    59  H          0.45750000       0.35580000       0.29360000
    60  H          0.54250000       0.64420000       0.70640000
    61  C          0.16529180       0.12776150       0.35852160
    62  C          0.83470820       0.87223850       0.64147840
    63  H          0.10410000       0.04670000       0.34320000
    64  H          0.89590000       0.95330000       0.65680000
    65  H          0.14710000       0.12900000       0.46880000
    66  H          0.85290000       0.87100000       0.53120000
    67  C          0.36674190       0.09588160       0.25949170
    68  C          0.63325810       0.90411840       0.74050830
    69  H          0.43660000       0.08770000       0.32630000
    70  H          0.56340000       0.91230000       0.67370000
    71  H          0.39430000      -0.00160000       0.20470000
    72  H          0.60570000       0.00160000       0.79530000
