data_LEFMEP
_symmetry_space_group_name_H-M    'P1'
_symmetry_Int_Tables_number       1
loop_
_symmetry_equiv_pos_site_id
_symmetry_equiv_pos_as_xyz
1 x,y,z
_cell_length_a                   8.312017
_cell_length_b                   8.347717
_cell_length_c                   8.603117
_cell_angle_alpha                66.903
_cell_angle_beta                 61.803
_cell_angle_gamma                80.313
loop_
_atom_site_label
_atom_site_type_symbol
_atom_site_fract_x
_atom_site_fract_y
_atom_site_fract_z
     1  S          0.35120800       0.55378700       0.34357800
     2  S          0.64879200       0.44621300       0.65642200
     3  O          0.44388190       0.65785190       0.37432000
     4  O          0.55611810       0.34214810       0.62568000
     5  O          0.19612000       0.44810190       0.52272000
     6  O          0.80388000       0.55189810       0.47728000
     7  H          0.15040000       0.48040000       0.62650000
     8  H          0.84960000       0.51960000       0.37350000
     9  O          0.45192000       0.45072000       0.23262000
    10  O          0.54808000       0.54928000       0.76738000
    11  O          0.24792000       0.68768190       0.22402000
    12  O          0.75208000       0.31231810       0.77598000
    13  S          0.14945700       0.86089700       0.26959800
    14  S          0.85054300       0.13910300       0.73040200
    15  O          0.30542000       0.98462190       0.18302000
    16  O          0.69458000       0.01537810       0.81698000
    17  H          0.34950000       0.98750000       0.27550000
    18  H          0.65050000       0.01250000       0.72450000
    19  O          0.05451190       0.81236190       0.46982000
    20  O          0.94548810       0.18763810       0.53018000
    21  O          0.05092000       0.91652000       0.16162000
    22  O          0.94908000       0.08348000       0.83838000
    23  O          0.07772000       0.51131190       0.81212000
    24  O          0.92228000       0.48868810       0.18788000
    25  C          0.89507000       0.57613000       0.90013000
    26  C          0.10493000       0.42387000       0.09987000
    27  H          0.80270000       0.48280000       0.95840000
    28  H          0.19730000       0.51720000       0.04160000
    29  H          0.87000000       0.67470000       0.80360000
    30  H          0.13000000       0.32530000       0.19640000
    31  C          0.11523000       0.36503000       0.95173000
    32  C          0.88477000       0.63497000       0.04827000
    33  H          0.23830000       0.32040000       0.89020000
    34  H          0.76170000       0.67960000       0.10980000
    35  H          0.02470000       0.26970000       0.01050000
    36  H          0.97530000       0.73030000      -0.01050000
    37  O          0.42412000       0.00969190       0.38332000
    38  O          0.57588000      -0.00969190       0.61668000
    39  C          0.62033000      -0.00327000       0.31823000
    40  C          0.37967000       0.00327000       0.68177000
    41  H          0.68440000       0.05620000       0.17930000
    42  H          0.31560000       0.94380000       0.82070000
    43  H          0.65520000       0.87290000       0.34960000
    44  H          0.34480000       0.12710000       0.65040000
    45  C          0.32693000       0.91973000       0.58723000
    46  C          0.67307000       0.08027000       0.41277000
    47  H          0.35900000       0.79510000       0.62110000
    48  H          0.64100000       0.20490000       0.37890000
    49  H          0.19350000       0.92750000       0.62920000
    50  H          0.80650000       0.07250000       0.37080000
