data_LEFMAL
_symmetry_space_group_name_H-M    'P1'
_symmetry_Int_Tables_number       1
loop_
_symmetry_equiv_pos_site_id
_symmetry_equiv_pos_as_xyz
1 x,y,z
_cell_length_a                   9.133018
_cell_length_b                   9.352819
_cell_length_c                   10.6492
_cell_angle_alpha                90.0
_cell_angle_beta                 98.963
_cell_angle_gamma                90.0
loop_
_atom_site_label
_atom_site_type_symbol
_atom_site_fract_x
_atom_site_fract_y
_atom_site_fract_z
     1  S          0.04244700       0.50079600       0.20436500
     2  S          0.45755300       0.00079600       0.29563500
     3  S          0.95755300       0.49920400       0.79563500
     4  S          0.54244700      -0.00079600       0.70436500
     5  O          0.00982000       0.64765170       0.19979170
     6  O          0.49018000       0.14765170       0.30020830
     7  O         -0.00982000       0.35234830       0.80020830
     8  O          0.50982000       0.85234830       0.69979170
     9  O          0.14982000       0.45062000       0.13385160
    10  O          0.35018000       0.95062000       0.36614840
    11  O          0.85018000       0.54938000       0.86614840
    12  O          0.64982000       0.04938000       0.63385160
    13  O          0.92840810       0.40582190       0.22278160
    14  O          0.57159190       0.90582190       0.27721840
    15  O          0.07159190       0.59417810       0.77721840
    16  O          0.42840810       0.09417810       0.72278160
    17  O          0.14717150       0.49440160       0.36763120
    18  O          0.35282850      -0.00559840       0.13236880
    19  O          0.85282850       0.50559840       0.63236880
    20  O          0.64717150       0.00559840       0.86763120
    21  C          0.20823000       0.35232000       0.40602000
    22  C          0.29177000       0.85232000       0.09398000
    23  C          0.79177000       0.64768000       0.59398000
    24  C          0.70823000       0.14768000       0.90602000
    25  H          0.29270000       0.33000000       0.36130000
    26  H          0.20730000       0.83000000       0.13870000
    27  H          0.70730000       0.67000000       0.63870000
    28  H          0.79270000       0.17000000       0.86130000
    29  H          0.13130000       0.27790000       0.38430000
    30  H          0.36870000       0.77790000       0.11570000
    31  H          0.86870000       0.72210000       0.61570000
    32  H          0.63130000       0.22210000       0.88430000
    33  C          0.25823000       0.35633000       0.54622000
    34  C          0.24177000       0.85633000       0.95378000
    35  C          0.74177000       0.64367000       0.45378000
    36  C          0.75823000       0.14367000       0.04622000
    37  H          0.17240000       0.37740000       0.58980000
    38  H          0.32760000       0.87740000       0.91020000
    39  H          0.82760000       0.62260000       0.41020000
    40  H          0.67240000       0.12260000       0.08980000
    41  H          0.29790000       0.26140000       0.57540000
    42  H          0.20210000       0.76140000       0.92460000
    43  H          0.70210000       0.73860000       0.42460000
    44  H          0.79790000       0.23860000       0.07540000
    45  O          0.36890180       0.46127160       0.57941150
    46  O          0.13109820       0.96127160       0.92058850
    47  O          0.63109820       0.53872840       0.42058850
    48  O          0.86890180       0.03872840       0.07941150
    49  C          0.31043000       0.59752000       0.54122000
    50  C          0.18957000       0.09752000       0.95878000
    51  C          0.68957000       0.40248000       0.45878000
    52  C          0.81043000       0.90248000       0.04122000
    53  H          0.38700000       0.67140000       0.56660000
    54  H          0.11300000       0.17140000       0.93340000
    55  H          0.61300000       0.32860000       0.43340000
    56  H          0.88700000       0.82860000       0.06660000
    57  H          0.22510000       0.61830000       0.58540000
    58  H          0.27490000       0.11830000       0.91460000
    59  H          0.77490000       0.38170000       0.41460000
    60  H          0.72510000       0.88170000       0.08540000
    61  C          0.26113000       0.60502000       0.40082000
    62  C          0.23887000       0.10502000       0.09918000
    63  C          0.73887000       0.39498000       0.59918000
    64  C          0.76113000       0.89498000       0.90082000
    65  H          0.21970000       0.70060000       0.37650000
    66  H          0.28030000       0.20060000       0.12350000
    67  H          0.78030000       0.29940000       0.62350000
    68  H          0.71970000       0.79940000       0.87650000
    69  H          0.34600000       0.58750000       0.35520000
    70  H          0.15400000       0.08750000       0.14480000
    71  H          0.65400000       0.41250000       0.64480000
    72  H          0.84600000       0.91250000       0.85520000
    73  O          0.52285810       0.64798160      -0.01163150
    74  O          0.97714190       0.14798160       0.51163150
    75  O          0.47714190       0.35201840       0.01163150
    76  O          0.02285810       0.85201840       0.48836850
    77  C          0.61217000       0.56442000       0.08272000
    78  C          0.88783000       0.06442000       0.41728000
    79  C          0.38783000       0.43558000       0.91728000
    80  C          0.11217000       0.93558000       0.58272000
    81  H          0.64540000       0.62430000       0.15850000
    82  H          0.85460000       0.12430000       0.34150000
    83  H          0.35460000       0.37570000       0.84150000
    84  H          0.14540000       0.87570000       0.65850000
    85  H          0.70120000       0.53050000       0.04910000
    86  H          0.79880000       0.03050000       0.45090000
    87  H          0.29880000       0.46950000       0.95090000
    88  H          0.20120000       0.96950000       0.54910000
    89  C          0.47277000       0.56112000       0.88008000
    90  C          0.02723000       0.06112000       0.61992000
    91  C          0.52723000       0.43888000       0.11992000
    92  C          0.97277000       0.93888000       0.38008000
    93  H          0.55900000       0.52720000       0.84240000
    94  H          0.94100000       0.02720000       0.65760000
    95  H          0.44100000       0.47280000       0.15760000
    96  H          0.05900000       0.97280000       0.34240000
    97  H          0.40880000       0.61840000       0.81530000
    98  H          0.09120000       0.11840000       0.68470000
    99  H          0.59120000       0.38160000       0.18470000
   100  H          0.90880000       0.88160000       0.31530000
