data_LEFSUO
_symmetry_space_group_name_H-M    'P1'
_symmetry_Int_Tables_number       1
loop_
_symmetry_equiv_pos_site_id
_symmetry_equiv_pos_as_xyz
1 x,y,z
_cell_length_a                   4.18483
_cell_length_b                   7.73995
_cell_length_c                   16.251311
_cell_angle_alpha                92.0975
_cell_angle_beta                 90.0025
_cell_angle_gamma                99.1995
loop_
_atom_site_label
_atom_site_type_symbol
_atom_site_fract_x
_atom_site_fract_y
_atom_site_fract_z
     1  C          0.08919000       0.70936000       0.84633000
     2  C          0.91081000       0.29064000       0.15367000
     3  H          0.04514400       0.81394800       0.82301800
     4  H          0.95485600       0.18605200       0.17698200
     5  C         -0.01569000       0.67466000       0.92703000
     6  C          0.01569000       0.32534000       0.07297000
     7  C          0.04799000       0.52386000       0.95933000
     8  C          0.95201000       0.47614000       0.04067000
     9  C          0.21189000       0.40876000       0.91353000
    10  C          0.78811000       0.59124000       0.08647000
    11  C          0.27769000       0.25206000       0.94753000
    12  C          0.72231000       0.74794000       0.05247000
    13  C          0.43649000       0.14106000       0.90323000
    14  C          0.56351000       0.85894000       0.09677000
    15  H          0.48299900       0.03641800       0.92597900
    16  H          0.51700100       0.96358200       0.07402100
    17  C          0.53109000       0.18536000       0.82183000
    18  C          0.46891000       0.81464000       0.17817000
    19  H          0.64011100       0.10771400       0.78993800
    20  H          0.35988900       0.89228600       0.21006200
    21  C          0.47089000       0.33567000       0.78773000
    22  C          0.52911000       0.66433000       0.21227000
    23  H          0.53760100       0.36089900       0.73293800
    24  H          0.46239900       0.63910100       0.26706200
    25  C          0.31049000       0.45247000       0.83343000
    26  C          0.68951000       0.54753000       0.16657000
    27  N          0.24328000       0.60645000       0.80132000
    28  N          0.75672000       0.39355000       0.19868000
    29  O          0.82054000       0.78954000       0.97128190
    30  O          0.17946000       0.21046000       0.02871810
    31  C          0.95301100       0.07937000       0.57403000
    32  C          0.04698900       0.92063000       0.42597000
    33  C          0.81409000       0.90566000       0.56073000
    34  C          0.18591000       0.09434000       0.43927000
    35  C          0.86331000       0.82947000       0.48563000
    36  C          0.13669000       0.17053000       0.51437000
    37  F          0.91498000       0.16104000       0.64672190
    38  F          0.08502000       0.83896000       0.35327810
    39  F          0.73308000       0.66294000       0.46812000
    40  F          0.26692000       0.33706000       0.53188000
    41  I          0.55564600       0.76565400       0.65355200
    42  I          0.44435400       0.23434600       0.34644800
