data_LEFYAA
_symmetry_space_group_name_H-M    'P1'
_symmetry_Int_Tables_number       1
loop_
_symmetry_equiv_pos_site_id
_symmetry_equiv_pos_as_xyz
1 x,y,z
_cell_length_a                   7.65364
_cell_length_b                   12.93867
_cell_length_c                   7.64404
_cell_angle_alpha                90.0
_cell_angle_beta                 90.0
_cell_angle_gamma                90.0
loop_
_atom_site_label
_atom_site_type_symbol
_atom_site_fract_x
_atom_site_fract_y
_atom_site_fract_z
     1  F          0.20067000       0.25000000       0.43817000
     2  F          0.29933000       0.75000000       0.93817000
     3  F          0.70067000       0.25000000       0.06183000
     4  F          0.79933000       0.75000000       0.56183000
     5  H          0.25760000       0.25000000       0.55440000
     6  H          0.24240000       0.75000000       0.05440000
     7  H          0.75760000       0.25000000       0.94560000
     8  H          0.74240000       0.75000000       0.44560000
     9  F          0.08597000       0.25000000       0.72035000
    10  F          0.41403000       0.75000000       0.22035000
    11  F          0.58597000       0.25000000       0.77965000
    12  F          0.91403000       0.75000000       0.27965000
    13  F          0.96992000       0.16164000       0.48584000
    14  F          0.53008000       0.83836000      -0.01416000
    15  F          0.46992000       0.33836000       0.01416000
    16  F          0.03008000       0.66164000       0.51416000
    17  F          0.03008000       0.83836000       0.51416000
    18  F          0.46992000       0.16164000       0.01416000
    19  F          0.53008000       0.66164000      -0.01416000
    20  F          0.96992000       0.33836000       0.48584000
    21  B          0.05069000       0.25000000       0.52708000
    22  B          0.44931000       0.75000000       0.02708000
    23  B          0.55069000       0.25000000       0.97292000
    24  B          0.94931000       0.75000000       0.47292000
    25  O          0.53534000       0.08602000       0.60483000
    26  O          0.96466000       0.91398000       0.10483000
    27  O          0.03534000       0.41398000       0.89517000
    28  O          0.46466000       0.58602000       0.39517000
    29  O          0.46466000       0.91398000       0.39517000
    30  O          0.03534000       0.08602000       0.89517000
    31  O          0.96466000       0.58602000       0.10483000
    32  O          0.53534000       0.41398000       0.60483000
    33  C          0.40336000       0.01223000       0.65325000
    34  C          0.09664000       0.98777000       0.15325000
    35  C          0.90336000       0.48777000       0.84675000
    36  C          0.59664000       0.51223000       0.34675000
    37  C          0.59664000       0.98777000       0.34675000
    38  C          0.90336000       0.01223000       0.84675000
    39  C          0.09664000       0.51223000       0.15325000
    40  C          0.40336000       0.48777000       0.65325000
    41  H          0.28883000       0.03430400       0.60590700
    42  H          0.21117000       0.96569600       0.10590700
    43  H          0.78883000       0.46569600       0.89409300
    44  H          0.71117000       0.53430400       0.39409300
    45  H          0.71117000       0.96569600       0.39409300
    46  H          0.78883000       0.03430400       0.89409300
    47  H          0.21117000       0.53430400       0.10590700
    48  H          0.28883000       0.46569600       0.60590700
    49  H          0.39387300       0.00891400       0.78224600
    50  H          0.10612700      -0.00891400       0.28224600
    51  H          0.89387300       0.49108600       0.71775400
    52  H          0.60612700       0.50891400       0.21775400
    53  H          0.60612700      -0.00891400       0.21775400
    54  H          0.89387300       0.00891400       0.71775400
    55  H          0.10612700       0.50891400       0.28224600
    56  H          0.39387300       0.49108600       0.78224600
    57  C          0.55136000       0.09153000       0.41675000
    58  C          0.94864000       0.90847000       0.91675000
    59  C          0.05136000       0.40847000       0.08325000
    60  C          0.44864000       0.59153000       0.58325000
    61  C          0.44864000       0.90847000       0.58325000
    62  C          0.05136000       0.09153000       0.08325000
    63  C          0.94864000       0.59153000       0.91675000
    64  C          0.55136000       0.40847000       0.41675000
    65  H          0.64338200       0.14176400       0.38472600
    66  H          0.85661800       0.85823600       0.88472600
    67  H          0.14338200       0.35823600       0.11527400
    68  H          0.35661800       0.64176400       0.61527400
    69  H          0.35661800       0.85823600       0.61527400
    70  H          0.14338200       0.14176400       0.11527400
    71  H          0.85661800       0.64176400       0.88472600
    72  H          0.64338200       0.35823600       0.38472600
    73  H          0.43959700       0.11516100       0.36510800
    74  H          0.06040300       0.88483900       0.86510800
    75  H          0.93959700       0.38483900       0.13489200
    76  H          0.56040300       0.61516100       0.63489200
    77  H          0.56040300       0.88483900       0.63489200
    78  H          0.93959700       0.11516100       0.13489200
    79  H          0.06040300       0.61516100       0.86510800
    80  H          0.43959700       0.38483900       0.36510800
