data_LEFYUT
_symmetry_space_group_name_H-M    'P1'
_symmetry_Int_Tables_number       1
loop_
_symmetry_equiv_pos_site_id
_symmetry_equiv_pos_as_xyz
1 x,y,z
_cell_length_a                   10.9533
_cell_length_b                   9.027818
_cell_length_c                   20.7345
_cell_angle_alpha                90.0
_cell_angle_beta                 103.5399
_cell_angle_gamma                90.0
loop_
_atom_site_label
_atom_site_type_symbol
_atom_site_fract_x
_atom_site_fract_y
_atom_site_fract_z
     1  O          0.97942600       0.16645700       0.60904300
     2  O          0.52057400       0.66645700       0.89095700
     3  O          0.02057400       0.83354300       0.39095700
     4  O          0.47942600       0.33354300       0.10904300
     5  O          0.15291600       0.92564300       0.62157300
     6  O          0.34708400       0.42564300       0.87842700
     7  O          0.84708400       0.07435700       0.37842700
     8  O          0.65291600       0.57435700       0.12157300
     9  N          0.70533600       0.20863700       0.48164300
    10  N          0.79466400       0.70863700       0.01835700
    11  N          0.29466400       0.79136300       0.51835700
    12  N          0.20533600       0.29136300       0.98164300
    13  N          0.66829600       0.47039700       0.48316400
    14  N          0.83170400       0.97039700       0.01683600
    15  N          0.33170400       0.52960300       0.51683600
    16  N          0.16829600       0.02960300       0.98316400
    17  N          0.87509500       0.37729700       0.48811300
    18  N          0.62490500       0.87729700       0.01188700
    19  N          0.12490500       0.62270300       0.51188700
    20  N          0.37509500       0.12270300       0.98811300
    21  N          0.50980600       0.30227800       0.48077400
    22  N         -0.00980600       0.80227800       0.01922600
    23  N          0.49019400       0.69772200       0.51922600
    24  N          0.00980600       0.19772200       0.98077400
    25  H          0.46161500       0.36971700       0.48579000
    26  H          0.03838500       0.86971700       0.01421000
    27  H          0.53838500       0.63028300       0.51421000
    28  H          0.96161500       0.13028300       0.98579000
    29  H          0.48231400       0.21581400       0.47717000
    30  H          0.01768600       0.71581400       0.02283000
    31  H          0.51768600       0.78418600       0.52283000
    32  H          0.98231400       0.28418600       0.97717000
    33  N          0.83507600       0.62636700       0.48190400
    34  N          0.66492400       0.12636700       0.01809600
    35  N          0.16492400       0.37363300       0.51809600
    36  N          0.33507600       0.87363300       0.98190400
    37  H          0.79361400       0.70241500       0.48428000
    38  H          0.70638600       0.20241500       0.01572000
    39  H          0.20638600       0.29758500       0.51572000
    40  H          0.29361400       0.79758500       0.98428000
    41  H          0.91191200       0.63671900       0.48758000
    42  H          0.58808800       0.13671900       0.01242000
    43  H          0.08808800       0.36328100       0.51242000
    44  H          0.41191200       0.86328100       0.98758000
    45  C          0.91556600       0.11734700       0.49365400
    46  C          0.58443400       0.61734700       0.00634600
    47  C          0.08443400       0.88265300       0.50634600
    48  C          0.41556600       0.38265300      -0.00634600
    49  C         -0.00820400       0.08261800       0.55541400
    50  C          0.50820400       0.58261800       0.94458600
    51  C          0.00820400       0.91738200       0.44458600
    52  C          0.49179600       0.41738200       0.05541400
    53  C          0.04505700       0.11491900       0.67025400
    54  C          0.45494300       0.61491900       0.82974600
    55  C          0.95494300       0.88508100       0.32974600
    56  C          0.54505700       0.38508100       0.17025400
    57  C          0.02446800       0.18413100       0.72650400
    58  C          0.47553200       0.68413100       0.77349600
    59  C          0.97553200       0.81586900       0.27349600
    60  C          0.52446800       0.31586900       0.22650400
    61  H          0.96650000       0.26380000       0.72250000
    62  H          0.53350000       0.76380000       0.77750000
    63  H          0.03350000       0.73620000       0.27750000
    64  H          0.46650000       0.23620000       0.22250000
    65  C          0.08954900       0.13598120       0.78908400
    66  C          0.41045100       0.63598120       0.71091600
    67  C          0.91045100       0.86401880       0.21091600
    68  C          0.58954900       0.36401880       0.28908400
    69  H          0.07600000       0.18330000       0.82770000
    70  H          0.42400000       0.68330000       0.67230000
    71  H          0.92400000       0.81670000       0.17230000
    72  H          0.57600000       0.31670000       0.32770000
    73  C          0.17391900       0.01926120       0.79507400
    74  C          0.32608100       0.51926120       0.70492600
    75  C          0.82608100       0.98073880       0.20492600
    76  C          0.67391900       0.48073880       0.29507400
    77  H          0.21800000      -0.01310000       0.83780000
    78  H          0.28200000       0.48690000       0.66220000
    79  H          0.78200000       0.01310000       0.16220000
    80  H          0.71800000       0.51310000       0.33780000
    81  C          0.19404800       0.94943890       0.73837400
    82  C          0.30595200       0.44943890       0.76162600
    83  C          0.80595200       0.05056110       0.26162600
    84  C          0.69404800       0.55056110       0.23837400
    85  H          0.25150000       0.86930000       0.74230000
    86  H          0.24850000       0.36930000       0.75770000
    87  H          0.74850000       0.13070000       0.25770000
    88  H          0.75150000       0.63070000       0.24230000
    89  C          0.12978700      -0.00225900       0.67644400
    90  C          0.37021300       0.49774100       0.82355600
    91  C          0.87021300       0.00225900       0.32355600
    92  C          0.62978700       0.50225900       0.17644400
    93  C          0.07594600       0.96545200       0.56157400
    94  C          0.42405400       0.46545200       0.93842600
    95  C          0.92405400       0.03454800       0.43842600
    96  C          0.57594600       0.53454800       0.06157400
    97  C          0.82549600       0.24312700       0.48693300
    98  C          0.67450400       0.74312700       0.01306700
    99  C          0.17450400       0.75687300       0.51306700
   100  C          0.32549600       0.25687300       0.98693300
   101  C          0.79063600       0.48936800       0.48434400
   102  C          0.70936400      -0.01063200       0.01565600
   103  C          0.20936400       0.51063200       0.51565600
   104  C          0.29063600       0.01063200       0.98434400
   105  C          0.62993600       0.32826800       0.48147400
   106  C          0.87006400       0.82826800       0.01852600
   107  C          0.37006400       0.67173200       0.51852600
   108  C          0.12993600       0.17173200       0.98147400
   109  S          0.56078300       0.03497400       0.64203200
   110  S          0.93921700       0.53497400       0.85796800
   111  S          0.43921700       0.96502600       0.35796800
   112  S          0.06078300       0.46502600       0.14203200
   113  O          0.59102120       0.95010880       0.70598500
   114  O          0.90897880       0.45010880       0.79401500
   115  O          0.40897880       0.04989120       0.29401500
   116  O          0.09102120       0.54989120       0.20598500
   117  C          0.68388110       0.16648150       0.64796600
   118  C          0.81611890       0.66648150       0.85203400
   119  C          0.31611890       0.83351850       0.35203400
   120  C          0.18388110       0.33351850       0.14796600
   121  H          0.69260000       0.22420000       0.68880000
   122  H          0.80740000       0.72420000       0.81120000
   123  H          0.30740000       0.77580000       0.31120000
   124  H          0.19260000       0.27580000       0.18880000
   125  H          0.66410000       0.23310000       0.60960000
   126  H          0.83590000       0.73310000       0.89040000
   127  H          0.33590000       0.76690000       0.39040000
   128  H          0.16410000       0.26690000       0.10960000
   129  H          0.76280000       0.11460000       0.64870000
   130  H          0.73720000       0.61460000       0.85130000
   131  H          0.23720000       0.88540000       0.35130000
   132  H          0.26280000       0.38540000       0.14870000
   133  C          0.43869120       0.16322000       0.64724700
   134  C          0.06130880       0.66322000       0.85275300
   135  C          0.56130880       0.83678000       0.35275300
   136  C          0.93869120       0.33678000       0.14724700
   137  H          0.36170000       0.10870000       0.64790000
   138  H          0.13830000       0.60870000       0.85210000
   139  H          0.63830000       0.89130000       0.35210000
   140  H          0.86170000       0.39130000       0.14790000
   141  H          0.42320000       0.22930000       0.60870000
   142  H          0.07680000       0.72930000       0.89130000
   143  H          0.57680000       0.77070000       0.39130000
   144  H          0.92320000       0.27070000       0.10870000
   145  H          0.46440000       0.22190000       0.68790000
   146  H          0.03560000       0.72190000       0.81210000
   147  H          0.53560000       0.77810000       0.31210000
   148  H          0.96440000       0.27810000       0.18790000
   149  S          0.62651200       0.24412300       0.82207200
   150  S          0.87348800       0.74412300       0.67792800
   151  S          0.37348800       0.75587700       0.17792800
   152  S          0.12651200       0.25587700       0.32207200
   153  O          0.64663800       0.35840100       0.87630400
   154  O          0.85336200       0.85840100       0.62369600
   155  O          0.35336200       0.64159900       0.12369600
   156  O          0.14663800       0.14159900       0.37630400
   157  C          0.76090110       0.12631150       0.83882600
   158  C          0.73909890       0.62631150       0.66117400
   159  C          0.23909890       0.87368850       0.16117400
   160  C          0.26090110       0.37368850       0.33882600
   161  H          0.83470000       0.18280000       0.83410000
   162  H          0.66530000       0.68280000       0.66590000
   163  H          0.16530000       0.81720000       0.16590000
   164  H          0.33470000       0.31720000       0.33410000
   165  H          0.74710000       0.04350000       0.80740000
   166  H          0.75290000       0.54350000       0.69260000
   167  H          0.25290000       0.95650000       0.19260000
   168  H          0.24710000       0.45650000       0.30740000
   169  H          0.77470000       0.08790000       0.88420000
   170  H          0.72530000       0.58790000       0.61580000
   171  H          0.22530000       0.91210000       0.11580000
   172  H          0.27470000       0.41210000       0.38420000
   173  C          0.51497110       0.11444150       0.83941600
   174  C         -0.01497110       0.61444150       0.66058400
   175  C          0.48502890       0.88555850       0.16058400
   176  C          0.01497110       0.38555850       0.33941600
   177  H          0.54650000       0.07270000       0.88380000
   178  H          0.95350000       0.57270000       0.61620000
   179  H          0.45350000       0.92730000       0.11620000
   180  H          0.04650000       0.42730000       0.38380000
   181  H          0.50230000       0.03460000       0.80650000
   182  H         -0.00230000       0.53460000       0.69350000
   183  H          0.49770000       0.96540000       0.19350000
   184  H          0.00230000       0.46540000       0.30650000
   185  H          0.43500000       0.16490000       0.83740000
   186  H          0.06500000       0.66490000       0.66260000
   187  H          0.56500000       0.83510000       0.16260000
   188  H          0.93500000       0.33510000       0.33740000
   189  O          0.68486600       0.89313300       0.50658400
   190  O          0.81513400       0.39313300      -0.00658400
   191  O          0.31513400       0.10686700       0.49341600
   192  O          0.18486600       0.60686700       0.00658400
   193  H          0.67631700       0.97778300       0.49179000
   194  H          0.82368300       0.47778300       0.00821000
   195  H          0.32368300       0.02221700       0.50821000
   196  H          0.17631700       0.52221700       0.99179000
   197  H          0.72701500       0.88498100       0.54507000
   198  H          0.77298500       0.38498100       0.95493000
   199  H          0.27298500       0.11501900       0.45493000
   200  H          0.22701500       0.61501900       0.04507000
