data_LEGZUW
_symmetry_space_group_name_H-M    'P1'
_symmetry_Int_Tables_number       1
loop_
_symmetry_equiv_pos_site_id
_symmetry_equiv_pos_as_xyz
1 x,y,z
_cell_length_a                   10.49054
_cell_length_b                   13.18706
_cell_length_c                   14.91727
_cell_angle_alpha                77.0774
_cell_angle_beta                 88.0593
_cell_angle_gamma                80.0433
loop_
_atom_site_label
_atom_site_type_symbol
_atom_site_fract_x
_atom_site_fract_y
_atom_site_fract_z
     1  C          0.19521200       0.89749000       0.59008000
     2  H          0.26620000       0.84310000       0.59800000
     3  C          0.13991200       0.93479000       0.50438000
     4  H          0.17150000       0.90660000       0.45440000
     5  C          0.03391100       0.01678000       0.49528000
     6  C          0.98098800       0.05549000       0.56719000
     7  H          0.90760000       0.10740000       0.55880000
     8  C          0.03861100       0.01609000       0.65568000
     9  H          0.00400000       0.04150000       0.70610000
    10  C          0.14851000       0.93808000       0.66467000
    11  C          0.22381000       0.93669000       0.82427000
    12  C          0.47261100       0.74098000       0.87287000
    13  C          0.50361100       0.62167000       0.87757000
    14  H          0.42530000       0.59000000       0.89210000
    15  C          0.60581100       0.57269000       0.95127000
    16  H          0.63510000       0.50000000       0.94940000
    17  H          0.56950000       0.57670000       0.01050000
    18  H          0.67760000       0.61010000       0.94040000
    19  C          0.47729000       0.64067000       0.71367000
    20  C          0.52889000       0.62528000       0.62377000
    21  C          0.65291100       0.59018000       0.59557000
    22  H          0.72210000       0.56130000       0.63580000
    23  C          0.66291100       0.60278000       0.49928000
    24  H          0.73870000       0.58420000       0.46820000
    25  C          0.54271100       0.64718000       0.45668000
    26  C          0.50381000       0.68588000       0.35957000
    27  C          0.54741000       0.71028000       0.19747000
    28  H          0.50850000       0.78510000       0.18550000
    29  C          0.66131000       0.69519000       0.13137000
    30  H          0.73290000       0.72210000       0.15010000
    31  H          0.63520000       0.73240000       0.07000000
    32  H          0.68680000       0.62120000       0.13250000
    33  C          0.44451100       0.64498000       0.18187000
    34  C          0.13591100       0.66089000       0.19238000
    35  C          0.07231000       0.70958000       0.34237000
    36  C          0.95498900       0.77551000       0.32649000
    37  H          0.92600000       0.80400000       0.26630000
    38  C          0.87738900       0.80071000       0.40091000
    39  H          0.79800000       0.84550000       0.39060000
    40  C          0.92418800       0.75609000       0.49029000
    41  C          0.04051200       0.68799000       0.50818000
    42  H          0.06950000       0.65780000       0.56800000
    43  C          0.11371100       0.66618000       0.43078000
    44  H          0.19270000       0.62060000       0.44050000
    45  Cl         0.96817000       0.07193000       0.38432000
    46  Cl         0.83307000       0.79123000       0.58202000
    47  N          0.21239000       0.89396000       0.75046000
    48  H          0.25000000       0.82940000       0.75690000
    49  N          0.29981000       0.87497000       0.89437000
    50  H          0.31760000       0.90110000       0.93930000
    51  N          0.34859000       0.77117000       0.89466000
    52  H          0.29880000       0.72450000       0.90900000
    53  N          0.55557000       0.60486000       0.78875000
    54  H          0.63350000       0.57310000       0.78420000
    55  N          0.59178000       0.67617000       0.29176000
    56  H          0.67170000       0.65030000       0.30460000
    57  N          0.33788000       0.70307000       0.13776000
    58  H          0.33730000       0.76850000       0.11270000
    59  N          0.22759000       0.65888000       0.13176000
    60  H          0.22000000       0.62940000       0.08660000
    61  N          0.15868000       0.69237000       0.26866000
    62  H          0.23580000       0.70380000       0.27420000
    63  O          0.55278000       0.79796000       0.85556000
    64  O          0.36497000       0.68976000       0.71775000
    65  O          0.39137000       0.72527000       0.33995000
    66  O          0.46199000       0.54876000       0.21077000
    67  S          0.15743000       0.05922000       0.83537180
    68  S          0.42372000       0.67149190       0.53380160
    69  S         -0.00823000       0.62712000       0.17172000
    70  C          0.47161000       0.35368000       0.57708000
    71  H          0.52550000       0.40410000       0.56490000
    72  C          0.40311200       0.33449000       0.50547000
    73  H          0.41120000       0.37070000       0.44500000
    74  C          0.32311000       0.25949000       0.52758000
    75  C          0.30541000       0.20508000       0.61578000
    76  H          0.24880000       0.15670000       0.62810000
    77  C          0.37539000       0.22489000       0.68607000
    78  H          0.36600000       0.18920000       0.74650000
    79  C          0.45869000       0.29758000       0.66547000
    80  C          0.49911000       0.34298000       0.81407000
    81  C          0.80129000       0.35548000       0.82206000
    82  C          0.93419000       0.29178000       0.80137000
    83  H          0.93030000       0.21610000       0.81520000
    84  C          0.03969000       0.31349000       0.85977000
    85  H          0.12310000       0.28430000       0.83960000
    86  H          0.02800000       0.28120000       0.92310000
    87  H          0.03380000       0.38820000       0.85280000
    88  C          0.87718000       0.31007000       0.64457000
    89  C          0.89169000       0.35467000       0.54527000
    90  C          0.97041100       0.41809000       0.49517000
    91  H          0.03060000       0.44760000       0.52080000
    92  C          0.94981100       0.43359000       0.39948000
    93  H         -0.00470000       0.47450000       0.35500000
    94  C          0.85651000       0.38228000       0.37947000
    95  C          0.81059000       0.36438000       0.29246000
    96  C          0.82801100       0.38398000       0.12666000
    97  H          0.73580000       0.41240000       0.11580000
    98  C          0.90521200       0.43659000       0.04857000
    99  H          0.90010000       0.50950000       0.05000000
   100  H          0.87080000       0.43140000      -0.00880000
   101  H         -0.00610000       0.40210000       0.05450000
   102  C          0.85021000       0.26348000       0.13547000
   103  C          0.68781100       0.06479000       0.18917000
   104  C          0.60981100       0.06338000       0.35098000
   105  C          0.54021200       0.98089000       0.37058000
   106  H          0.51780000       0.95200000       0.32310000
   107  C          0.50381300       0.94139000       0.45869000
   108  H          0.45660000       0.88630000       0.47110000
   109  C          0.53801100       0.98421000       0.52828000
   110  C          0.60021300       0.06951000       0.51168000
   111  H          0.61850000       0.10010000       0.55900000
   112  C          0.63501200       0.10908000       0.42177000
   113  H          0.67640000       0.16750000       0.40880000
   114  Cl         0.23963000       0.23042000       0.43857190
   115  Cl         0.50293000       0.92798000       0.64277190
   116  N          0.53988000       0.31217000       0.73656000
   117  H          0.62200000       0.29990000       0.72830000
   118  N          0.58988000       0.33957000       0.87736000
   119  H          0.56810000       0.36550000       0.92470000
   120  N          0.71727000       0.29487000       0.86686000
   121  H          0.74290000       0.22860000       0.88870000
   122  N          0.95888000       0.32777000       0.70516000
   123  H          0.02320000       0.35940000       0.68680000
   124  N          0.86859000       0.40547000       0.21416000
   125  H          0.92750000       0.44310000       0.21470000
   126  N          0.74139000       0.23177000       0.11396000
   127  H          0.67240000       0.27730000       0.09750000
   128  N          0.74151000       0.12457000       0.11836000
   129  H          0.77670000       0.09650000       0.07480000
   130  N          0.65531000       0.10877000       0.26266000
   131  H          0.66350000       0.17390000       0.25460000
   132  O          0.77907000       0.45075000       0.79625000
   133  O          0.78957000       0.25956000       0.67015000
   134  O          0.72207000       0.31386000       0.29315000
   135  O          0.95498000       0.20906000       0.15406000
   136  S          0.34322000       0.38922000       0.83667170
   137  S          0.78882000       0.31669190       0.47630150
   138  S          0.67163000       0.94308000       0.17914190
   139  C          0.71661500       0.00721100       0.79619000
   140  H          0.67520000       0.07690000       0.76650000
   141  H          0.67450000       0.95590000       0.77780000
   142  H          0.80600000      -0.00300000       0.77840000
   143  C          0.53291300       0.03151200       0.92871000
   144  H          0.51060000       0.02950000      -0.00810000
   145  H          0.48890000       0.98410000       0.90620000
   146  H          0.50750000       0.10200000       0.89290000
   147  O          0.76557000       0.08056000       0.94005000
   148  S          0.70583000      -0.00812190       0.91951180
   149  C          0.30051600       0.24911500       0.08061000
   150  H          0.28390000       0.25330000       0.01690000
   151  H          0.22120000       0.24670000       0.11450000
   152  H          0.36160000       0.18650000       0.10450000
   153  C          0.37701700       0.33201200       0.21481000
   154  H          0.40670000       0.25760000       0.23610000
   155  H          0.29330000       0.35100000       0.24040000
   156  H          0.43700000       0.37040000       0.23400000
   157  O          0.50178000       0.34717000       0.05965000
   158  S          0.36573000       0.36352000       0.09192000
   159  C          0.04311300       0.96961200       0.08761000
   160  H          0.02470000       0.96830000       0.02530000
   161  H          0.97770000       0.01940000       0.10860000
   162  H          0.04400000       0.90060000       0.12620000
   163  C          0.20501800       0.99111200       0.21629000
   164  H          0.19150000       0.92120000       0.24550000
   165  H          0.13910000       0.04200000       0.23530000
   166  H          0.28850000       0.00140000       0.23320000
   167  O          0.29717000       0.91886000       0.07105000
   168  S          0.19713000       0.00762000       0.09277180
   169  C          0.07111600       0.64581300       0.78239000
   170  H          0.05840000       0.71970000       0.75360000
   171  H          0.01120000       0.61250000       0.75660000
   172  H          0.15800000       0.61390000       0.77160000
   173  C          0.92898500       0.74821700       0.90461200
   174  H          0.84960000       0.74430000       0.87650000
   175  H          0.96330000       0.80850000       0.87080000
   176  H          0.91300000       0.75490000       0.96690000
   177  O          0.16781000       0.64488000       0.94377000
   178  S          0.04443000       0.62982000       0.90362000
   179  O          0.16707000       0.45486000       0.65125000
