data_LELWEG
_symmetry_space_group_name_H-M    'P1'
_symmetry_Int_Tables_number       1
loop_
_symmetry_equiv_pos_site_id
_symmetry_equiv_pos_as_xyz
1 x,y,z
_cell_length_a                   5.624601
_cell_length_b                   11.32392
_cell_length_c                   11.99122
_cell_angle_alpha                63.80057
_cell_angle_beta                 79.09091
_cell_angle_gamma                76.80619
loop_
_atom_site_label
_atom_site_type_symbol
_atom_site_fract_x
_atom_site_fract_y
_atom_site_fract_z
     1  Cl         0.75817300       0.87919818       0.14089818
     2  Cl         0.24182700       0.12080182       0.85910182
     3  S          0.39982300       0.22388416       0.22693716
     4  S          0.60017700       0.77611584       0.77306284
     5  O          0.65151110       0.18182600       0.18659500
     6  O          0.34848890       0.81817400       0.81340500
     7  O          0.21331130       0.20727600       0.16991600
     8  O          0.78668870       0.79272400       0.83008400
     9  N          0.17909110       0.05788600       0.56963500
    10  N          0.82090890       0.94211400       0.43036500
    11  H          0.32230000       0.00051500       0.59091500
    12  H          0.67770000      -0.00051500       0.40908500
    13  N          0.96814880       0.24071600       0.41160600
    14  N          0.03185120       0.75928400       0.58839400
    15  N          0.38344110       0.14404600       0.37561500
    16  N          0.61655890       0.85595400       0.62438500
    17  N          0.31691120       0.81220600       0.05484600
    18  N          0.68308880       0.18779400       0.94515400
    19  H          0.32030000       0.84331700       0.97338700
    20  H          0.67970000       0.15668300       0.02661300
    21  H          0.44730000       0.84261700       0.06771600
    22  H          0.55270000       0.15738300       0.93228400
    23  H          0.16330000       0.84991700       0.07501600
    24  H          0.83670000       0.15008300       0.92498400
    25  C          0.17294120       0.15133600       0.44867600
    26  C          0.82705880       0.84866400       0.55132400
    27  C         -0.01433140       0.05189700       0.65636600
    28  C          0.01433140       0.94810300       0.34363400
    29  H         -0.00430000       0.98660000       0.73990000
    30  H          0.00430000       0.01340000       0.26010000
    31  C          0.77383850       0.14158800       0.62223700
    32  C          0.22616150       0.85841200       0.37776300
    33  H          0.63290000       0.14070000       0.68030000
    34  H          0.36710000       0.85930000       0.31970000
    35  C          0.77650860       0.23454800       0.49715700
    36  C          0.22349140       0.76545200       0.50284300
    37  H          0.63160000       0.29750000       0.47160000
    38  H          0.36840000       0.70250000       0.52840000
    39  C          0.36887120       0.39702600       0.18572600
    40  C          0.63112880       0.60297400       0.81427400
    41  C          0.17314130       0.48204700       0.11966700
    42  C          0.82685870       0.51795300       0.88033300
    43  H          0.05150000       0.44660000       0.10420000
    44  H          0.94850000       0.55340000       0.89580000
    45  C          0.15721130       0.61935700       0.07640700
    46  C          0.84278870       0.38064300       0.92359300
    47  H          0.02740000       0.67890000       0.02920000
    48  H          0.97260000       0.32110000       0.97080000
    49  C          0.33443130       0.66772600       0.10342600
    50  C          0.66556870       0.33227400       0.89657400
    51  C          0.52775140       0.58346700       0.17123700
    52  C          0.47224860       0.41653300       0.82876300
    53  H          0.64480000       0.61890000       0.19000000
    54  H          0.35520000       0.38110000       0.81000000
    55  C          0.54750130       0.44617700       0.21132700
    56  C          0.45249870       0.55382300       0.78867300
    57  H          0.68110000       0.38690000       0.25550000
    58  H          0.31890000       0.61310000       0.74450000
    59  O          0.79726830       0.65356800       0.42119800
    60  O          0.20273170       0.34643200       0.57880200
    61  H          0.79570000       0.70970000       0.34640000
    62  H          0.20430000       0.29030000       0.65360000
    63  C          0.00202000       0.54926900       0.43207900
    64  C         -0.00202000       0.45073100       0.56792100
    65  H          0.95930000       0.50680000       0.38250000
    66  H          0.04070000       0.49320000       0.61750000
    67  H          0.15210000       0.58460000       0.39150000
    68  H          0.84790000       0.41540000       0.60850000
