data_LESQAF
_symmetry_space_group_name_H-M    'P1'
_symmetry_Int_Tables_number       1
loop_
_symmetry_equiv_pos_site_id
_symmetry_equiv_pos_as_xyz
1 x,y,z
_cell_length_a                   14.65724
_cell_length_b                   3.7185712
_cell_length_c                   20.39587
_cell_angle_alpha                90.0
_cell_angle_beta                 108.7783
_cell_angle_gamma                90.0
loop_
_atom_site_label
_atom_site_type_symbol
_atom_site_fract_x
_atom_site_fract_y
_atom_site_fract_z
     1  O          0.30992800       0.18133000       0.58778600
     2  O          0.19007200       0.68133000       0.91221400
     3  O          0.69007200       0.81867000       0.41221400
     4  O          0.80992800       0.31867000       0.08778600
     5  N          0.25691110       0.41685000       0.67074800
     6  N          0.24308890       0.91685000       0.82925200
     7  N          0.74308890       0.58315000       0.32925200
     8  N          0.75691110       0.08315000       0.17074800
     9  H          0.31268900       0.39357300       0.70152000
    10  H          0.18731100       0.89357300       0.79848000
    11  H          0.68731100       0.60642700       0.29848000
    12  H          0.81268900       0.10642700       0.20152000
    13  H          0.20991300       0.50685500       0.68190800
    14  H          0.29008700       0.00685500       0.81809200
    15  H          0.79008700       0.49314500       0.31809200
    16  H          0.70991300      -0.00685500       0.18190800
    17  N          0.15529100       0.35135000       0.56068800
    18  N          0.34470900       0.85135000       0.93931200
    19  N          0.84470900       0.64865000       0.43931200
    20  N          0.65529100       0.14865000       0.06068800
    21  H          0.14342900       0.28480600       0.51836600
    22  H          0.35657100       0.78480600       0.98163400
    23  H          0.85657100       0.71519400       0.48163400
    24  H          0.64342900       0.21519400       0.01836600
    25  H          0.11016100       0.44255000       0.57387100
    26  H          0.38983900       0.94255000       0.92612900
    27  H          0.88983900       0.55745000       0.42612900
    28  H          0.61016100       0.05745000       0.07387100
    29  C          0.24327110       0.31304000       0.60565800
    30  C          0.25672890       0.81304000       0.89434200
    31  C          0.75672890       0.68696000       0.39434200
    32  C          0.74327110       0.18696000       0.10565800
    33  O          0.54614800       0.86654000       0.58411600
    34  O          0.95385200       0.36654000       0.91588400
    35  O          0.45385200       0.13346000       0.41588400
    36  O          0.04614800       0.63346000       0.08411600
    37  N          0.64485100       0.70235000       0.68960800
    38  N          0.85514900       0.20235000       0.81039200
    39  N          0.35514900       0.29765000       0.31039200
    40  N          0.14485100       0.79765000       0.18960800
    41  H          0.69041000       0.65143000       0.67309600
    42  H          0.80959000       0.15143000       0.82690400
    43  H          0.30959000       0.34857000       0.32690400
    44  H          0.19041000       0.84857000       0.17309600
    45  H          0.65361500       0.67470200       0.73306100
    46  H          0.84638500       0.17470200       0.76693900
    47  H          0.34638500       0.32529800       0.26693900
    48  H          0.15361500       0.82529800       0.23306100
    49  N          0.49304110       0.89855000       0.67587700
    50  N          0.00695890       0.39855000       0.82412300
    51  N          0.50695890       0.10145000       0.32412300
    52  N         -0.00695890       0.60145000       0.17587700
    53  H          0.43778100      -0.02216600       0.65061800
    54  H          0.06221900       0.47783400       0.84938200
    55  H          0.56221900       0.02216600       0.34938200
    56  H          0.93778100       0.52216600       0.15061800
    57  H          0.50457000       0.86735100       0.71957600
    58  H         -0.00457000       0.36735100       0.78042400
    59  H          0.49543000       0.13264900       0.28042400
    60  H          0.00457000       0.63264900       0.21957600
    61  C          0.56014110       0.82474000       0.64755800
    62  C          0.93985890       0.32474000       0.85244200
    63  C          0.43985890       0.17526000       0.35244200
    64  C          0.06014110       0.67526000       0.14755800
    65  N          0.65132900       0.58754000       0.87291700
    66  N          0.84867100       0.08754000       0.62708300
    67  N          0.34867100       0.41246000       0.12708300
    68  N          0.15132900       0.91246000       0.37291700
    69  N          0.49938900       0.34774000       0.85189700
    70  N          0.00061100       0.84774000       0.64810300
    71  N          0.50061100       0.65226000       0.14810300
    72  N         -0.00061100       0.15226000       0.35189700
    73  O          0.51683100       0.22985000       0.90988700
    74  O          0.98316900       0.72985000       0.59011300
    75  O          0.48316900       0.77015000       0.09011300
    76  O          0.01683100       0.27015000       0.40988700
    77  O          0.70247100       0.76495000       0.84776800
    78  O          0.79752900       0.26495000       0.65223200
    79  O          0.29752900       0.23505000       0.15223200
    80  O          0.20247100       0.73505000       0.34776800
    81  N          0.56124900       0.53974000       0.82743700
    82  N          0.93875100       0.03974000       0.67256300
    83  N          0.43875100       0.46026000       0.17256300
    84  N          0.06124900       0.96026000       0.32743700
    85  O          0.68303100       0.47105000       0.93085800
    86  O          0.81696900      -0.02895000       0.56914200
    87  O          0.31696900       0.52895000       0.06914200
    88  O          0.18303100       0.02895000       0.43085800
    89  O          0.42105900       0.29826000       0.80748800
    90  O          0.07894100       0.79826000       0.69251200
    91  O          0.57894100       0.70174000       0.19251200
    92  O          0.92105900       0.20174000       0.30748800
    93  N          0.37033120       0.58825000       0.49541800
    94  N          0.12966880       0.08825000       0.00458200
    95  N          0.62966880       0.41175000       0.50458200
    96  N          0.87033120       0.91175000      -0.00458200
    97  H          0.34661600       0.44060000       0.52051100
    98  H          0.15338400       0.94060000       0.97948900
    99  H          0.65338400       0.55940000       0.47948900
   100  H          0.84661600       0.05940000       0.02051100
   101  H          0.39181700       0.44660000       0.46971100
   102  H          0.10818300       0.94660000       0.03028900
   103  H          0.60818300       0.55340000       0.53028900
   104  H          0.89181700       0.05340000       0.96971100
   105  H          0.42241600       0.71460000       0.52211100
   106  H          0.07758400       0.21460000       0.97788900
   107  H          0.57758400       0.28540000       0.47788900
   108  H          0.92241600       0.78540000       0.02211100
   109  H          0.32620000       0.71670000       0.47141400
   110  H          0.17380000       0.21670000       0.02858600
   111  H          0.67380000       0.28330000       0.52858600
   112  H          0.82620000       0.78330000       0.97141400
