data_LETNAD
_symmetry_space_group_name_H-M    'P1'
_symmetry_Int_Tables_number       1
loop_
_symmetry_equiv_pos_site_id
_symmetry_equiv_pos_as_xyz
1 x,y,z
_cell_length_a                   5.308501
_cell_length_b                   12.59612
_cell_length_c                   9.22872
_cell_angle_alpha                90.0
_cell_angle_beta                 98.6702
_cell_angle_gamma                90.0
loop_
_atom_site_label
_atom_site_type_symbol
_atom_site_fract_x
_atom_site_fract_y
_atom_site_fract_z
     1  S          0.69453900       0.40873400       0.78742600
     2  S          0.30546100       0.90873400       0.21257400
     3  O          0.91533000       0.35025130       0.75150180
     4  O          0.08467000       0.85025130       0.24849820
     5  O          0.64783000       0.50778140       0.70812000
     6  O          0.35217000       0.00778140       0.29188000
     7  O          0.71243000       0.42303160       0.94653170
     8  O          0.28757000       0.92303160       0.05346830
     9  N          0.45144000       0.33239160       0.72732000
    10  N          0.54856000       0.83239160       0.27268000
    11  H          0.31240000       0.36620000       0.74030000
    12  H          0.68760000       0.86620000       0.25970000
    13  H          0.47050000       0.26861300       0.76530000
    14  H          0.52950000       0.76861300       0.23470000
    15  N          0.60264000       0.25707170       0.34032000
    16  N          0.39736000       0.75707170       0.65968000
    17  H          0.43330000       0.25520000       0.34630000
    18  H          0.56670000       0.75520000       0.65370000
    19  N          0.08084000       0.25800160       0.34272000
    20  N          0.91916000       0.75800160       0.65728000
    21  C          0.72574000       0.18475180       0.45992000
    22  C          0.27426000       0.68475180       0.54008000
    23  H          0.65370000       0.11240000       0.44550000
    24  H          0.34630000       0.61240000       0.55450000
    25  H          0.69360000       0.21120000       0.55650000
    26  H          0.30640000       0.71120000       0.44350000
    27  C          0.01484000       0.18233180       0.45453000
    28  C         -0.01484000       0.68233180       0.54547000
    29  H          0.10900000       0.20140000       0.55180000
    30  H          0.89100000       0.70140000       0.44820000
    31  H          0.06610000       0.10970000       0.43020000
    32  H          0.93390000       0.60970000       0.56980000
    33  C          0.65774000       0.21932000       0.19422000
    34  C          0.34226000       0.71932000       0.80578000
    35  H          0.56950000       0.26480000       0.11490000
    36  H          0.43050000       0.76480000       0.88510000
    37  H          0.59720000       0.14540000       0.17640000
    38  H          0.40280000       0.64540000       0.82360000
    39  C          0.95124000       0.22512000       0.19683000
    40  C          0.04876000       0.72512000       0.80317000
    41  H          0.01550000       0.15460000       0.17200000
    42  H         -0.01550000       0.65460000       0.82800000
    43  H         -0.00980000       0.27650000       0.12210000
    44  H          0.00980000       0.77650000       0.87790000
    45  C          0.69964000       0.36820190       0.36743000
    46  C          0.30036000       0.86820190       0.63257000
    47  H          0.65100000       0.39590000       0.45970000
    48  H          0.34900000       0.89590000       0.54030000
    49  H          0.62550000       0.41520000       0.28600000
    50  H          0.37450000       0.91520000       0.71400000
    51  C         -0.00706000       0.36519190       0.37813000
    52  C          0.00706000       0.86519190       0.62187000
    53  H          0.04770000       0.41760000       0.30910000
    54  H          0.95230000       0.91760000       0.69090000
    55  H          0.07180000       0.38500000       0.47850000
    56  H          0.92820000       0.88500000       0.52150000
    57  O          0.53093000       0.12244140       0.84392000
    58  O          0.46907000       0.62244140       0.15608000
    59  N          0.75864000       0.98141830       0.94292000
    60  N          0.24136000       0.48141830       0.05708000
    61  H          0.62240000       0.96180000       0.98130000
    62  H          0.37760000       0.46180000       0.01870000
    63  H          0.90930000       0.96180000      -0.01170000
    64  H          0.09070000       0.46180000       0.01170000
    65  N          0.95984000       0.11963180       0.84292000
    66  N          0.04016000       0.61963180       0.15708000
    67  H          0.95260000       0.18551300       0.81330000
    68  H          0.04740000       0.68551300       0.18670000
    69  H          0.10240000       0.08820000       0.87730000
    70  H          0.89760000       0.58820000       0.12270000
    71  C          0.74074000       0.07755190       0.87702000
    72  C          0.25926000       0.57755190       0.12298000
