data_LEWREK
_symmetry_space_group_name_H-M    'P1'
_symmetry_Int_Tables_number       1
loop_
_symmetry_equiv_pos_site_id
_symmetry_equiv_pos_as_xyz
1 x,y,z
_cell_length_a                   14.5456
_cell_length_b                   4.19216
_cell_length_c                   23.0427
_cell_angle_alpha                90.0
_cell_angle_beta                 98.821
_cell_angle_gamma                90.0
loop_
_atom_site_label
_atom_site_type_symbol
_atom_site_fract_x
_atom_site_fract_y
_atom_site_fract_z
     1  N          0.82681000       0.43334000       0.90661000
     2  N          0.67319000       0.93334000       0.59339000
     3  N          0.17319000       0.56666000       0.09339000
     4  N          0.32681000       0.06666000       0.40661000
     5  C          0.89401000       0.27015000       0.94071000
     6  C          0.60599000       0.77015000       0.55929000
     7  C          0.10599000       0.72985000       0.05929000
     8  C          0.39401000       0.22985000       0.44071000
     9  N          0.96481000       0.15606000       0.91651000
    10  N          0.53519000       0.65606000       0.58349000
    11  N          0.03519000       0.84394000       0.08349000
    12  N          0.46481000       0.34394000       0.41651000
    13  N          0.89501000       0.21284000      -0.00159000
    14  N          0.60499000       0.71284000       0.50159000
    15  N          0.10499000       0.78716000       0.00159000
    16  N          0.39501000       0.28716000       0.49841000
    17  C          0.82322000       0.32246000       0.02101000
    18  C          0.67678000       0.82246000       0.47899000
    19  C          0.17678000       0.67754000       0.97899000
    20  C          0.32322000       0.17754000       0.52101000
    21  C          0.75072000       0.48607000       0.99001000
    22  C          0.74928000      -0.01393000       0.50999000
    23  C          0.24928000       0.51393000       0.00999000
    24  C          0.25072000       0.01393000       0.49001000
    25  C          0.75552000       0.53856000       0.93161000
    26  C          0.74448000       0.03856000       0.56839000
    27  C          0.24448000       0.46144000       0.06839000
    28  C          0.25552000       0.96144000       0.43161000
    29  H          0.96510000       0.17650000       0.88310000
    30  H          0.53490000       0.67650000       0.61690000
    31  H          0.03490000       0.82350000       0.11690000
    32  H          0.46510000       0.32350000       0.38310000
    33  H          0.00910000       0.04760000       0.93910000
    34  H          0.49090000       0.54760000       0.56090000
    35  H         -0.00910000       0.95240000       0.06090000
    36  H          0.50910000       0.45240000       0.43910000
    37  H          0.82710000       0.27750000       0.06210000
    38  H          0.67290000       0.77750000       0.43790000
    39  H          0.17290000       0.72250000       0.93790000
    40  H          0.32710000       0.22250000       0.56210000
    41  H          0.69810000       0.56660000       0.00610000
    42  H          0.80190000       0.06660000       0.49390000
    43  H          0.30190000       0.43340000      -0.00610000
    44  H          0.19810000       0.93340000       0.50610000
    45  H          0.70610000       0.65950000       0.90510000
    46  H          0.79390000       0.15950000       0.59490000
    47  H          0.29390000       0.34050000       0.09490000
    48  H          0.20610000       0.84050000       0.40510000
    49  C          0.00721000       0.55495000       0.66691000
    50  C          0.49279000       0.05495000       0.83309000
    51  C         -0.00721000       0.44505000       0.33309000
    52  C          0.50721000       0.94505000       0.16691000
    53  C          0.04811000       0.44215000       0.61991000
    54  C          0.45189000       0.94215000       0.88009000
    55  C          0.95189000       0.55785000       0.38009000
    56  C          0.54811000       0.05785000       0.11991000
    57  Cl         0.98318400       0.22061000       0.56503200
    58  Cl         0.51681600       0.72061000       0.93496800
    59  Cl         0.01681600       0.77939000       0.43496800
    60  Cl         0.48318400       0.27939000       0.06503200
    61  C          0.13951000       0.50725000       0.61601000
    62  C          0.36049000       0.00725000       0.88399000
    63  C          0.86049000       0.49275000       0.38399000
    64  C          0.63951000      -0.00725000       0.11601000
    65  C          0.19091000       0.68715000       0.65881000
    66  C          0.30909000       0.18715000       0.84119000
    67  C          0.80909000       0.31285000       0.34119000
    68  C          0.69091000       0.81285000       0.15881000
    69  Cl         0.30791400       0.76652000       0.65513300
    70  Cl         0.19208600       0.26652000       0.84486700
    71  Cl         0.69208600       0.23348000       0.34486700
    72  Cl         0.80791400       0.73348000       0.15513300
    73  C          0.15182000       0.80635000       0.70491000
    74  C          0.34818000       0.30635000       0.79509000
    75  C          0.84818000       0.19365000       0.29509000
    76  C          0.65182000       0.69365000       0.20491000
    77  C          0.06012000       0.73895000       0.70891000
    78  C          0.43988000       0.23895000       0.79109000
    79  C          0.93988000       0.26105000       0.29109000
    80  C          0.56012000       0.76105000       0.20891000
    81  O          0.91651000       0.46983000       0.66731000
    82  O          0.58349000      -0.03017000       0.83269000
    83  O          0.08349000       0.53017000       0.33269000
    84  O          0.41651000       0.03017000       0.16731000
    85  C          0.86551000       0.63585000       0.70631000
    86  C          0.63449000       0.13585000       0.79369000
    87  C          0.13449000       0.36415000       0.29369000
    88  C          0.36551000       0.86415000       0.20631000
    89  C          0.88151000       0.50745000       0.76821000
    90  C          0.61849000       0.00745000       0.73179000
    91  C          0.11849000       0.49255000       0.23179000
    92  C          0.38151000      -0.00745000       0.26821000
    93  O          0.93991000       0.31004000       0.78601000
    94  O          0.56009000       0.81004000       0.71399000
    95  O          0.06009000       0.68996000       0.21399000
    96  O          0.43991000       0.18996000       0.28601000
    97  O          0.82381000       0.63784000       0.79941000
    98  O          0.67619000       0.13784000       0.70059000
    99  O          0.17619000       0.36216000       0.20059000
   100  O          0.32381000       0.86216000       0.29941000
   101  H          0.16410000       0.43350000       0.58410000
   102  H          0.33590000       0.93350000       0.91590000
   103  H          0.83590000       0.56650000       0.41590000
   104  H          0.66410000       0.06650000       0.08410000
   105  H          0.18810000       0.93150000       0.73210000
   106  H          0.31190000       0.43150000       0.76790000
   107  H          0.81190000       0.06850000       0.26790000
   108  H          0.68810000       0.56850000       0.23210000
   109  H          0.03410000       0.82450000       0.73910000
   110  H          0.46590000       0.32450000       0.76090000
   111  H          0.96590000       0.17550000       0.26090000
   112  H          0.53410000       0.67550000       0.23910000
   113  H          0.79810000       0.60150000       0.69010000
   114  H          0.70190000       0.10150000       0.80990000
   115  H          0.20190000       0.39850000       0.30990000
   116  H          0.29810000       0.89850000       0.19010000
   117  H          0.88110000       0.85850000       0.70610000
   118  H          0.61890000       0.35850000       0.79390000
   119  H          0.11890000       0.14150000       0.29390000
   120  H          0.38110000       0.64150000       0.20610000
   121  H          0.83220000       0.53460000       0.84210000
   122  H          0.66780000       0.03460000       0.65790000
   123  H          0.16780000       0.46540000       0.15790000
   124  H          0.33220000       0.96540000       0.34210000
