data_LEWRIO
_symmetry_space_group_name_H-M    'P1'
_symmetry_Int_Tables_number       1
loop_
_symmetry_equiv_pos_site_id
_symmetry_equiv_pos_as_xyz
1 x,y,z
_cell_length_a                   6.3954
_cell_length_b                   7.0845
_cell_length_c                   15.341
_cell_angle_alpha                92.974
_cell_angle_beta                 92.444
_cell_angle_gamma                103.834
loop_
_atom_site_label
_atom_site_type_symbol
_atom_site_fract_x
_atom_site_fract_y
_atom_site_fract_z
     1  N          0.76517000       0.82073000       0.26061000
     2  N          0.23483000       0.17927000       0.73939000
     3  C         -0.02054000       0.89863000       0.27372000
     4  C          0.02054000       0.10137000       0.72628000
     5  N          0.05704000       0.94244000       0.35542000
     6  N          0.94296000       0.05756000       0.64458000
     7  N          0.11483000       0.93253000       0.20851000
     8  N          0.88517000       0.06747000       0.79149000
     9  C          0.02705000       0.88674000       0.12832000
    10  C         -0.02705000       0.11326000       0.87168000
    11  C          0.81095000       0.80774000       0.10922000
    12  C          0.18905000       0.19226000       0.89078000
    13  C          0.68605000       0.77784000       0.17782000
    14  C          0.31395000       0.22216000       0.82218000
    15  H          0.96860000       0.92940000       0.40220000
    16  H          0.03140000       0.07060000       0.59780000
    17  H          0.18340000      -0.00260000       0.36620000
    18  H          0.81660000       0.00260000       0.63380000
    19  H          0.12740000       0.91540000       0.08620000
    20  H          0.87260000       0.08460000       0.91380000
    21  H          0.75360000       0.77730000       0.05220000
    22  H          0.24640000       0.22270000       0.94780000
    23  H          0.53760000       0.72740000       0.17520000
    24  H          0.46240000       0.27260000       0.82480000
    25  C          0.30994000       0.69723000       0.66741000
    26  C          0.69006000       0.30277000       0.33259000
    27  C          0.39544000       0.73934000       0.75272000
    28  C          0.60456000       0.26066000       0.24728000
    29  C          0.26424000       0.70103000       0.82141000
    30  C          0.73576000       0.29897000       0.17859000
    31  Cl         0.37641000       0.75671000       0.92752400
    32  Cl         0.62359000       0.24329000       0.07247600
    33  C          0.04434000       0.61933000       0.80632000
    34  C          0.95566000       0.38067000       0.19368000
    35  Cl         0.87619000       0.57551000       0.89225400
    36  Cl         0.12381000       0.42449000       0.10774600
    37  C          0.96116000       0.57614000       0.72172000
    38  C          0.03884000       0.42386000       0.27828000
    39  C          0.09144000       0.61304000       0.65222000
    40  C          0.90856000       0.38696000       0.34778000
    41  O          0.45372000       0.74363000       0.60391000
    42  O          0.54628000       0.25637000       0.39609000
    43  C          0.37164000       0.70565000       0.51582000
    44  C          0.62836000       0.29435000       0.48418000
    45  C          0.55234000       0.77023000       0.45602000
    46  C          0.44766000       0.22977000       0.54398000
    47  O          0.73653000       0.84253000       0.48371000
    48  O          0.26347000       0.15747000       0.51629000
    49  O          0.48923000       0.73683000       0.37561000
    50  O          0.51077000       0.26317000       0.62439000
    51  H          0.53840000       0.79630000       0.76110000
    52  H          0.46160000       0.20370000       0.23890000
    53  H          0.81060000       0.52040000       0.70720000
    54  H          0.18940000       0.47960000       0.29280000
    55  H          0.02640000       0.58430000       0.59320000
    56  H         -0.02640000       0.41570000       0.40680000
    57  H          0.25740000       0.77530000       0.50610000
    58  H          0.74260000       0.22470000       0.49390000
    59  H          0.31040000       0.56540000       0.50410000
    60  H          0.68960000       0.43460000       0.49590000
    61  H          0.61950000       0.78350000       0.33020000
    62  H          0.38050000       0.21650000       0.66980000
