data_LEWYIX
_symmetry_space_group_name_H-M    'P1'
_symmetry_Int_Tables_number       1
loop_
_symmetry_equiv_pos_site_id
_symmetry_equiv_pos_as_xyz
1 x,y,z
_cell_length_a                   6.60405
_cell_length_b                   7.46796
_cell_length_c                   15.180114
_cell_angle_alpha                77.32601
_cell_angle_beta                 82.06801
_cell_angle_gamma                88.1232
loop_
_atom_site_label
_atom_site_type_symbol
_atom_site_fract_x
_atom_site_fract_y
_atom_site_fract_z
     1  Cl         0.23252120       0.61078100       0.45007400
     2  Cl         0.76747880       0.38921900       0.54992600
     3  N          0.29013000       0.83743000       0.10477140
     4  N          0.70987000       0.16257000       0.89522860
     5  H          0.16890000       0.79640000       0.10690000
     6  H          0.83110000       0.20360000       0.89310000
     7  H          0.35660000       0.89060000       0.05340000
     8  H          0.64340000       0.10940000       0.94660000
     9  O          0.66173000       0.97592000       0.09567100
    10  O          0.33827000       0.02408000       0.90432900
    11  H          0.77530000       0.01290000       0.09900000
    12  H          0.22470000      -0.01290000       0.90100000
    13  C          0.57163000       0.89183000       0.18076150
    14  C          0.42837000       0.10817000       0.81923850
    15  C          0.37863000       0.81783000       0.18472150
    16  C          0.62137000       0.18217000       0.81527850
    17  C          0.27654000       0.73303000       0.26869160
    18  C          0.72346000       0.26697000       0.73130840
    19  H          0.14650000       0.68500000       0.27270000
    20  H          0.85350000       0.31500000       0.72730000
    21  C          0.36714000       0.71973000       0.34610160
    22  C          0.63286000       0.28027000       0.65389840
    23  C          0.55844000       0.78833000       0.34254170
    24  C          0.44156000       0.21167000       0.65745830
    25  H          0.61870000       0.77650000       0.39540000
    26  H          0.38130000       0.22350000       0.60460000
    27  C          0.66134000       0.87603000       0.25858160
    28  C          0.33866000       0.12397000       0.74141840
    29  H          0.79100000       0.92400000       0.25520000
    30  H          0.20900000       0.07600000       0.74480000
    31  N          0.77943000       0.50793000       0.12100140
    32  N          0.22057000       0.49207000       0.87899860
    33  O          0.02202000       0.09042000       0.38207110
    34  O          0.97798000       0.90958000       0.61792890
    35  H          0.94890000       0.03680000       0.42770000
    36  H          0.05110000       0.96320000       0.57230000
    37  O          0.24013000       0.08012000       0.48255100
    38  O          0.75987000       0.91988000       0.51744900
    39  O          0.93843000       0.55453000       0.14124130
    40  O          0.06157000       0.44547000       0.85875870
    41  O          0.73923000       0.54353000       0.04315130
    42  O          0.26077000       0.45647000       0.95684870
    43  C          0.19563000       0.12423000       0.40346150
    44  C          0.80437000       0.87577000       0.59653850
    45  C          0.34763000       0.22183000       0.32859140
    46  C          0.65237000       0.77817000       0.67140860
    47  C          0.30573000       0.26183000       0.23932150
    48  C          0.69427000       0.73817000       0.76067850
    49  H          0.18180000       0.22660000       0.22580000
    50  H          0.81820000       0.77340000       0.77420000
    51  C          0.44773000       0.35393000       0.17069150
    52  C          0.55227000       0.64607000       0.82930850
    53  H          0.42170000       0.38110000       0.11050000
    54  H          0.57830000       0.61890000       0.88950000
    55  C          0.62893000       0.40473000       0.19327150
    56  C          0.37107000       0.59527000       0.80672850
    57  C          0.67483000       0.36533000       0.28120160
    58  C          0.32517000       0.63467000       0.71879840
    59  H          0.79900000       0.40080000       0.29430000
    60  H          0.20100000       0.59920000       0.70570000
    61  C          0.53313000       0.27253000       0.34917150
    62  C          0.46687000       0.72747000       0.65082850
    63  H          0.56130000       0.24360000       0.40900000
    64  H          0.43870000       0.75640000       0.59100000
    65  O          0.01633000       0.14502000       0.08701120
    66  O         -0.01633000       0.85498000       0.91298880
    67  H          0.08150000       0.23410000       0.05080000
    68  H          0.91850000       0.76590000       0.94920000
    69  H          0.09480000       0.05190000       0.09340000
    70  H          0.90520000       0.94810000       0.90660000
