data_LEXPOW
_symmetry_space_group_name_H-M    'P1'
_symmetry_Int_Tables_number       1
loop_
_symmetry_equiv_pos_site_id
_symmetry_equiv_pos_as_xyz
1 x,y,z
_cell_length_a                   8.31115
_cell_length_b                   22.098814
_cell_length_c                   11.66277
_cell_angle_alpha                90.0
_cell_angle_beta                 98.3572
_cell_angle_gamma                90.0
loop_
_atom_site_label
_atom_site_type_symbol
_atom_site_fract_x
_atom_site_fract_y
_atom_site_fract_z
     1  N          0.95186120       0.04688500       0.70922900
     2  N          0.54813880       0.54688500       0.79077100
     3  N          0.04813880       0.95311500       0.29077100
     4  N          0.45186120       0.45311500       0.20922900
     5  C          0.87651140       0.02210600       0.80204100
     6  C          0.62348860       0.52210600       0.69795900
     7  C          0.12348860       0.97789400       0.19795900
     8  C          0.37651140       0.47789400       0.30204100
     9  N          0.93414150       0.08296600       0.52242100
    10  N          0.56585850       0.58296600       0.97757900
    11  N          0.06585850       0.91703400       0.47757900
    12  N          0.43414150       0.41703400       0.02242100
    13  H          0.88260000       0.08800000       0.45260000
    14  H          0.61740000       0.58800000       0.04740000
    15  H          0.11740000       0.91200000       0.54740000
    16  H          0.38260000       0.41200000       0.95260000
    17  H          0.03210000       0.09720000       0.54080000
    18  H          0.46790000       0.59720000       0.95920000
    19  H          0.96790000       0.90280000       0.45920000
    20  H          0.53210000       0.40280000       0.04080000
    21  C          0.10511150       0.07695600       0.74070110
    22  C          0.39488850       0.57695600       0.75929890
    23  C          0.89488850       0.92304400       0.25929890
    24  C          0.60511150       0.42304400       0.24070110
    25  C          0.86257150       0.05322600       0.60171110
    26  C          0.63742850       0.55322600       0.89828890
    27  C          0.13742850       0.94677400       0.39828890
    28  C          0.36257150       0.44677400       0.10171110
    29  C          0.81896150       0.06133700       0.88070110
    30  C          0.68103850       0.56133700       0.61929890
    31  C          0.18103850       0.93866300       0.11929890
    32  C          0.31896150       0.43866300       0.38070110
    33  C          0.10950160       0.13145600       0.80176110
    34  C          0.39049840       0.63145600       0.69823890
    35  C          0.89049840       0.86854400       0.19823890
    36  C          0.60950160       0.36854400       0.30176110
    37  C          0.25957170       0.16163700       0.82362130
    38  C          0.24042830       0.66163700       0.67637870
    39  C          0.74042830       0.83836300       0.17637870
    40  C          0.75957170       0.33836300       0.32362130
    41  H          0.26570000       0.19900000       0.86260000
    42  H          0.23430000       0.69900000       0.63740000
    43  H          0.73430000       0.80100000       0.13740000
    44  H          0.76570000       0.30100000       0.36260000
    45  C          0.24492170       0.05241700       0.70761120
    46  C          0.25507830       0.55241700       0.79238880
    47  C          0.75507830       0.94758300       0.29238880
    48  C          0.74492170       0.44758300       0.20761120
    49  H          0.24020000       0.01510000       0.66870000
    50  H          0.25980000       0.51510000       0.83130000
    51  H          0.75980000       0.98490000       0.33130000
    52  H          0.74020000       0.48490000       0.16870000
    53  C          0.84420170       0.12677700       0.87958130
    54  C          0.65579830       0.62677700       0.62041870
    55  C          0.15579830       0.87322300       0.12041870
    56  C          0.34420170       0.37322300       0.37958130
    57  H          0.76320000       0.15060000       0.90590000
    58  H          0.73680000       0.65060000       0.59410000
    59  H          0.23680000       0.84940000       0.09410000
    60  H          0.26320000       0.34940000       0.40590000
    61  C          0.86207180       0.95993300       0.81171130
    62  C          0.63792820       0.45993300       0.68828870
    63  C          0.13792820       0.04006700       0.18828870
    64  C          0.36207180       0.54006700       0.31171130
    65  H          0.90540000       0.93420000       0.75980000
    66  H          0.59460000       0.43420000       0.74020000
    67  H          0.09460000       0.06580000       0.24020000
    68  H          0.40540000       0.56580000       0.25980000
    69  C          0.96854170       0.15682600       0.84567130
    70  C          0.53145830       0.65682600       0.65432870
    71  C          0.03145830       0.84317400       0.15432870
    72  C          0.46854170       0.34317400       0.34567130
    73  H          0.96470000       0.19920000       0.85070000
    74  H          0.53530000       0.69920000       0.64930000
    75  H          0.03530000       0.80080000       0.14930000
    76  H          0.46470000       0.30080000       0.35070000
    77  C          0.39771170       0.13778700       0.78926130
    78  C          0.10228830       0.63778700       0.71073870
    79  C          0.60228830       0.86221300       0.21073870
    80  C          0.89771170       0.36221300       0.28926130
    81  H          0.49670000       0.15890000       0.80490000
    82  H          0.00330000       0.65890000       0.69510000
    83  H          0.50330000       0.84110000       0.19510000
    84  H         -0.00330000       0.34110000       0.30490000
    85  C          0.39162180       0.08300800       0.73188140
    86  C          0.10837820       0.58300800       0.76811860
    87  C          0.60837820       0.91699200       0.26811860
    88  C          0.89162180       0.41699200       0.23188140
    89  H          0.48650000       0.06650000       0.70930000
    90  H          0.01350000       0.56650000       0.79070000
    91  H          0.51350000       0.93350000       0.29070000
    92  H         -0.01350000       0.43350000       0.20930000
    93  C          0.73708180       0.03545800       0.96575130
    94  C          0.76291820       0.53545800       0.53424870
    95  C          0.26291820       0.96454200       0.03424870
    96  C          0.23708180       0.46454200       0.46575130
    97  H          0.69330000       0.06080000       0.01810000
    98  H          0.80670000       0.56080000       0.48190000
    99  H          0.30670000       0.93920000       0.98190000
   100  H          0.19330000       0.43920000       0.51810000
   101  C          0.78362000       0.93581200       0.89818150
   102  C          0.71638000       0.43581200       0.60181850
   103  C          0.21638000       0.06418800       0.10181850
   104  C          0.28362000       0.56418800       0.39818150
   105  H          0.77390000       0.89360000       0.90520000
   106  H          0.72610000       0.39360000       0.59480000
   107  H          0.22610000       0.10640000       0.09480000
   108  H          0.27390000       0.60640000       0.40520000
   109  C          0.71953190       0.97380100       0.97400140
   110  C          0.78046810       0.47380100       0.52599860
   111  C          0.28046810       0.02619900       0.02599860
   112  C          0.21953190       0.52619900       0.47400140
   113  H          0.66380000       0.95750000       0.03140000
   114  H          0.83620000       0.45750000       0.46860000
   115  H          0.33620000       0.04250000       0.96860000
   116  H          0.16380000       0.54250000       0.53140000
   117  O          0.72341120       0.03228500       0.57885800
   118  O          0.77658880       0.53228500       0.92114200
   119  O          0.27658880       0.96771500       0.42114200
   120  O          0.22341120       0.46771500       0.07885800
   121  O          0.49632130       0.05969500       0.38524900
   122  O          0.00367870       0.55969500       0.11475100
   123  O          0.50367870       0.94030500       0.61475100
   124  O         -0.00367870       0.44030500       0.88524900
   125  H          0.41690000       0.03510000       0.38190000
   126  H          0.08310000       0.53510000       0.11810000
   127  H          0.58310000       0.96490000       0.61810000
   128  H          0.91690000       0.46490000       0.88190000
   129  H          0.56570000       0.05110000       0.44480000
   130  H          0.93430000       0.55110000       0.05520000
   131  H          0.43430000       0.94890000       0.55520000
   132  H          0.06570000       0.44890000       0.94480000
   133  C          0.71791160       0.20094600       0.14225110
   134  C          0.78208840       0.70094600       0.35774890
   135  C          0.28208840       0.79905400       0.85774890
   136  C          0.21791160       0.29905400       0.64225110
   137  O          0.55385150       0.12897700       0.21612120
   138  O          0.94614850       0.62897700       0.28387880
   139  O          0.44614850       0.87102300       0.78387880
   140  O          0.05385150       0.37102300       0.71612120
   141  H          0.54640000       0.10540000       0.27060000
   142  H          0.95360000       0.60540000       0.22940000
   143  H          0.45360000       0.89460000       0.72940000
   144  H          0.04640000       0.39460000       0.77060000
   145  C          0.87306160       0.22665600       0.13005110
   146  C          0.62693840       0.72665600       0.36994890
   147  C          0.12693840       0.77334400       0.86994890
   148  C          0.37306160       0.27334400       0.63005110
   149  C          0.87674170       0.27522600       0.04984120
   150  C          0.62325830       0.77522600       0.45015880
   151  C          0.12325830       0.72477400       0.95015880
   152  C          0.37674170       0.22477400       0.54984120
   153  C          0.02387160       0.20707600       0.19166120
   154  C          0.47612840       0.70707600       0.30833880
   155  C          0.97612840       0.79292400       0.80833880
   156  C          0.52387160       0.29292400       0.69166120
   157  H          0.02560000       0.17470000       0.24410000
   158  H          0.47440000       0.67470000       0.25590000
   159  H          0.97440000       0.82530000       0.75590000
   160  H          0.52560000       0.32530000       0.74410000
   161  C          0.57956170       0.22183700       0.07418120
   162  C          0.92043830       0.72183700       0.42581880
   163  C          0.42043830       0.77816300       0.92581880
   164  C          0.07956170       0.27816300       0.57418120
   165  H          0.47890000       0.20390000       0.08100000
   166  H          0.02110000       0.70390000       0.41900000
   167  H          0.52110000       0.79610000       0.91900000
   168  H          0.97890000       0.29610000       0.58100000
   169  C          0.58536190       0.26929700      -0.00512130
   170  C          0.91463810       0.76929700       0.50512130
   171  C          0.41463810       0.73070300       0.00512130
   172  C          0.08536190       0.23070300       0.49487870
   173  H          0.48950000       0.28280000       0.94930000
   174  H          0.01050000       0.78280000       0.55070000
   175  H          0.51050000       0.71720000       0.05070000
   176  H         -0.01050000       0.21720000       0.44930000
   177  C          0.73055190       0.29561700       0.98439870
   178  C          0.76944810       0.79561700       0.51560130
   179  C          0.26944810       0.70438300       0.01560130
   180  C          0.23055190       0.20438300       0.48439870
   181  H          0.73350000       0.32800000       0.93250000
   182  H          0.76650000       0.82800000       0.56750000
   183  H          0.26650000       0.67200000       0.06750000
   184  H          0.23350000       0.17200000       0.43250000
   185  C          0.02764190       0.30243700       0.03655130
   186  C          0.47235810       0.80243700       0.46344870
   187  C          0.97235810       0.69756300       0.96344870
   188  C          0.52764190       0.19756300       0.53655130
   189  H          0.02970000       0.33450000       0.98370000
   190  H          0.47030000       0.83450000       0.51630000
   191  H          0.97030000       0.66550000       0.01630000
   192  H          0.52970000       0.16550000       0.48370000
   193  C          0.69787160       0.15327600       0.22994110
   194  C          0.80212840       0.65327600       0.27005890
   195  C          0.30212840       0.84672400       0.77005890
   196  C          0.19787160       0.34672400       0.72994110
   197  C          0.16904190       0.28301700       0.09878150
   198  C          0.33095810       0.78301700       0.40121850
   199  C          0.83095810       0.71698300       0.90121850
   200  C          0.66904190       0.21698300       0.59878150
   201  H          0.26780000       0.30200000       0.09010000
   202  H          0.23220000       0.80200000       0.40990000
   203  H          0.73220000       0.69800000       0.90990000
   204  H          0.76780000       0.19800000       0.59010000
   205  C          0.16685180       0.23439700       0.17628140
   206  C          0.33314820       0.73439700       0.32371860
   207  C          0.83314820       0.76560300       0.82371860
   208  C          0.66685180       0.26560300       0.67628140
   209  H          0.26510000       0.22050000       0.21810000
   210  H          0.23490000       0.72050000       0.28190000
   211  H          0.73490000       0.77950000       0.78190000
   212  H          0.76510000       0.27950000       0.71810000
   213  O          0.80128150       0.13860700       0.30746110
   214  O          0.69871850       0.63860700       0.19253890
   215  O          0.19871850       0.86139300       0.69253890
   216  O          0.30128150       0.36139300       0.80746110
