data_LEZKEI02
_symmetry_space_group_name_H-M    'P1'
_symmetry_Int_Tables_number       1
loop_
_symmetry_equiv_pos_site_id
_symmetry_equiv_pos_as_xyz
1 x,y,z
_cell_length_a                   5.1261725
_cell_length_b                   23.382114
_cell_length_c                   24.029818
_cell_angle_alpha                90.0
_cell_angle_beta                 101.068432
_cell_angle_gamma                90.0
loop_
_atom_site_label
_atom_site_type_symbol
_atom_site_fract_x
_atom_site_fract_y
_atom_site_fract_z
     1  Cl         0.04370000       0.16040000       0.18090000
     2  Cl         0.95630000       0.66040000       0.31910000
     3  Cl         0.95630000       0.83960000       0.81910000
     4  Cl         0.04370000       0.33960000       0.68090000
     5  O          0.68430000       0.35770000       0.33150000
     6  O          0.31570000       0.85770000       0.16850000
     7  O          0.31570000       0.64230000       0.66850000
     8  O          0.68430000       0.14230000       0.83150000
     9  O          0.25720000       0.39990000       0.56840000
    10  O          0.74280000       0.89990000       0.93160000
    11  O          0.74280000       0.60010000       0.43160000
    12  O          0.25720000       0.10010000       0.06840000
    13  O          0.62840000       0.17330000       0.54040000
    14  O          0.37160000       0.67330000       0.95960000
    15  O          0.37160000       0.82670000       0.45960000
    16  O          0.62840000       0.32670000       0.04040000
    17  O          0.85830000       0.19530000       0.62510000
    18  O          0.14170000       0.69530000       0.87490000
    19  O          0.14170000       0.80470000       0.37490000
    20  O          0.85830000       0.30470000       0.12510000
    21  N          0.77090000       0.30480000       0.41190000
    22  N          0.22910000       0.80480000       0.08810000
    23  N          0.22910000       0.69520000       0.58810000
    24  N          0.77090000       0.19520000       0.91190000
    25  C         -0.01750000       0.20160000       0.23720000
    26  C          0.01750000       0.70160000       0.26280000
    27  C          0.01750000       0.79840000       0.76280000
    28  C         -0.01750000       0.29840000       0.73720000
    29  C          0.08130000       0.25580000       0.24340000
    30  C          0.91870000       0.75580000       0.25660000
    31  C          0.91870000       0.74420000       0.75660000
    32  C          0.08130000       0.24420000       0.74340000
    33  C          0.06520000       0.28530000       0.29230000
    34  C          0.93480000       0.78530000       0.20770000
    35  C          0.93480000       0.71470000       0.70770000
    36  C          0.06520000       0.21470000       0.79230000
    37  C          0.88440000       0.26940000       0.32440000
    38  C          0.11560000       0.76940000       0.17560000
    39  C          0.11560000       0.73060000       0.67560000
    40  C          0.88440000       0.23060000       0.82440000
    41  C          0.77310000       0.31430000       0.35470000
    42  C          0.22690000       0.81430000       0.14530000
    43  C          0.22690000       0.68570000       0.64530000
    44  C          0.77310000       0.18570000       0.85470000
    45  C          0.62720000       0.33450000       0.44660000
    46  C          0.37280000       0.83450000       0.05340000
    47  C          0.37280000       0.66550000       0.55340000
    48  C          0.62720000       0.16550000       0.94660000
    49  C          0.69240000       0.31200000       0.50030000
    50  C          0.30760000       0.81200000      -0.00030000
    51  C          0.30760000       0.68800000       0.49970000
    52  C          0.69240000       0.18800000       0.00030000
    53  C          0.59090000       0.33580000       0.54650000
    54  C          0.40910000       0.83580000       0.95350000
    55  C          0.40910000       0.66420000       0.45350000
    56  C          0.59090000       0.16420000       0.04650000
    57  C          0.39900000       0.37710000       0.53220000
    58  C          0.60100000       0.87710000       0.96780000
    59  C          0.60100000       0.62290000       0.46780000
    60  C          0.39900000       0.12290000       0.03220000
    61  C          0.05790000       0.43920000       0.54590000
    62  C          0.94210000       0.93920000       0.95410000
    63  C          0.94210000       0.56080000       0.45410000
    64  C          0.05790000       0.06080000       0.04590000
    65  C          0.33960000       0.40040000       0.47930000
    66  C          0.66040000       0.90040000       0.02070000
    67  C          0.66040000       0.59960000       0.52070000
    68  C          0.33960000       0.09960000       0.97930000
    69  C          0.45810000       0.38050000       0.43600000
    70  C          0.54190000       0.88050000       0.06400000
    71  C          0.54190000       0.61950000       0.56400000
    72  C          0.45810000       0.11950000       0.93600000
    73  C          0.89300000       0.26880000       0.49920000
    74  C          0.10700000       0.76880000       0.00080000
    75  C          0.10700000       0.73120000       0.50080000
    76  C          0.89300000       0.23120000      -0.00080000
    77  C          0.94340000       0.26710000       0.44630000
    78  C          0.05660000       0.76710000       0.05370000
    79  C          0.05660000       0.73290000       0.55370000
    80  C          0.94340000       0.23290000       0.94630000
    81  C          0.11420000       0.22830000       0.42100000
    82  C          0.88580000       0.72830000       0.07900000
    83  C          0.88580000       0.77170000       0.57900000
    84  C          0.11420000       0.27170000       0.92100000
    85  C          0.01410000       0.23310000       0.54940000
    86  C         -0.01410000       0.73310000       0.95060000
    87  C         -0.01410000       0.76690000       0.45060000
    88  C          0.01410000       0.26690000       0.04940000
    89  C          0.81190000       0.19950000       0.57090000
    90  C          0.18810000       0.69950000       0.92910000
    91  C          0.18810000       0.80050000       0.42910000
    92  C          0.81190000       0.30050000       0.07090000
    93  C          0.74990000       0.21720000       0.31130000
    94  C          0.25010000       0.71720000       0.18870000
    95  C          0.25010000       0.78280000       0.68870000
    96  C          0.74990000       0.28280000       0.81130000
    97  C          0.81620000       0.18180000       0.27100000
    98  C          0.18380000       0.68180000       0.22900000
    99  C          0.18380000       0.81820000       0.72900000
   100  C          0.81620000       0.31820000       0.77100000
   101  H          0.96400000       0.45870000       0.57810000
   102  H          0.03600000       0.95870000       0.92190000
   103  H          0.03600000       0.54130000       0.42190000
   104  H          0.96400000       0.04130000       0.07810000
   105  H          0.89840000       0.41840000       0.51650000
   106  H          0.10160000       0.91840000       0.98350000
   107  H          0.10160000       0.58160000       0.48350000
   108  H          0.89840000       0.08160000       0.01650000
   109  H          0.15720000       0.47460000       0.52910000
   110  H          0.84280000       0.97460000       0.97090000
   111  H          0.84280000       0.52540000       0.47090000
   112  H          0.15720000       0.02540000       0.02910000
   113  H          0.39810000       0.39920000       0.39410000
   114  H          0.60190000       0.89920000       0.10590000
   115  H          0.60190000       0.60080000       0.60590000
   116  H          0.39810000       0.10080000       0.89410000
   117  H          0.20460000       0.43660000       0.47040000
   118  H          0.79540000       0.93660000       0.02960000
   119  H          0.79540000       0.56340000       0.52960000
   120  H          0.20460000       0.06340000       0.97040000
   121  H          0.65250000       0.31750000       0.58860000
   122  H          0.34750000       0.81750000       0.91140000
   123  H          0.34750000       0.68250000       0.41140000
   124  H          0.65250000       0.18250000       0.08860000
   125  H          0.00660000       0.19380000       0.39640000
   126  H         -0.00660000       0.69380000       0.10360000
   127  H         -0.00660000       0.80620000       0.60360000
   128  H          0.00660000       0.30620000       0.89640000
   129  H          0.23080000       0.25160000       0.39510000
   130  H          0.76920000       0.75160000       0.10490000
   131  H          0.76920000       0.74840000       0.60490000
   132  H          0.23080000       0.24840000       0.89510000
   133  H          0.24860000       0.20520000       0.45380000
   134  H          0.75140000       0.70520000       0.04620000
   135  H          0.75140000       0.79480000       0.54620000
   136  H          0.24860000       0.29480000       0.95380000
   137  H          0.69180000       0.18740000       0.63900000
   138  H          0.30820000       0.68740000       0.86100000
   139  H          0.30820000       0.81260000       0.36100000
   140  H          0.69180000       0.31260000       0.13900000
   141  H          0.11340000       0.25950000       0.58440000
   142  H          0.88660000       0.75950000       0.91560000
   143  H          0.88660000       0.74050000       0.41560000
   144  H          0.11340000       0.24050000       0.08440000
   145  H          0.16520000       0.20470000       0.53860000
   146  H          0.83480000       0.70470000       0.96140000
   147  H          0.83480000       0.79530000       0.46140000
   148  H          0.16520000       0.29530000       0.03860000
   149  H          0.77520000       0.13620000       0.27100000
   150  H          0.22480000       0.63620000       0.22900000
   151  H          0.22480000       0.86380000       0.72900000
   152  H          0.77520000       0.36380000       0.77100000
   153  H          0.60010000       0.20350000       0.33500000
   154  H          0.39990000       0.70350000       0.16500000
   155  H          0.39990000       0.79650000       0.66500000
   156  H          0.60010000       0.29650000       0.83500000
   157  H          0.17840000       0.32360000       0.30660000
   158  H          0.82160000       0.82360000       0.19340000
   159  H          0.82160000       0.67640000       0.69340000
   160  H          0.17840000       0.17640000       0.80660000
   161  H          0.12720000       0.27800000       0.20680000
   162  H          0.87280000       0.77800000       0.29320000
   163  H          0.87280000       0.72200000       0.79320000
   164  H          0.12720000       0.22200000       0.70680000
   165  N          0.71970000       0.96300000       0.33700000
   166  N          0.28030000       0.46300000       0.16300000
   167  N          0.28030000       0.03700000       0.66300000
   168  N          0.71970000       0.53700000       0.83700000
   169  N          0.60380000       0.90900000       0.40630000
   170  N          0.39620000       0.40900000       0.09370000
   171  N          0.39620000       0.09100000       0.59370000
   172  N          0.60380000       0.59100000       0.90630000
   173  O          0.48340000       0.88120000       0.31640000
   174  O          0.51660000       0.38120000       0.18360000
   175  O          0.51660000       0.11880000       0.68360000
   176  O          0.48340000       0.61880000       0.81640000
   177  C          0.61810000       0.91470000       0.35570000
   178  C          0.38190000       0.41470000       0.14430000
   179  C          0.38190000       0.08530000       0.64430000
   180  C          0.61810000       0.58530000       0.85570000
   181  C          0.80900000       0.00800000       0.37550000
   182  C          0.19100000       0.50800000       0.12450000
   183  C          0.19100000       0.99200000       0.62450000
   184  C          0.80900000       0.49200000       0.87550000
   185  C          0.63590000       0.05250000       0.37840000
   186  C          0.36410000       0.55250000       0.12160000
   187  C          0.36410000       0.94750000       0.62160000
   188  C          0.63590000       0.44750000       0.87840000
   189  C          0.40300000       0.06420000       0.33340000
   190  C          0.59700000       0.56420000       0.16660000
   191  C          0.59700000       0.93580000       0.66660000
   192  C          0.40300000       0.43580000       0.83340000
   193  C          0.36190000       0.04830000       0.27890000
   194  C          0.63810000       0.54830000       0.22110000
   195  C          0.63810000       0.95170000       0.72110000
   196  C          0.36190000       0.45170000       0.77890000
   197  C          0.55030000       0.01690000       0.25170000
   198  C          0.44970000       0.51690000       0.24830000
   199  C          0.44970000       0.98310000       0.74830000
   200  C          0.55030000       0.48310000       0.75170000
   201  C          0.70830000       0.97400000       0.27870000
   202  C          0.29170000       0.47400000       0.22130000
   203  C          0.29170000       0.02600000       0.72130000
   204  C          0.70830000       0.52600000       0.77870000
   205  C          0.85250000       0.93960000       0.24960000
   206  C          0.14750000       0.43960000       0.25040000
   207  C          0.14750000       0.06040000       0.75040000
   208  C          0.85250000       0.56040000       0.74960000
   209  C          0.89130000       0.95470000       0.19740000
   210  C          0.10870000       0.45470000       0.30260000
   211  C          0.10870000       0.04530000       0.80260000
   212  C          0.89130000       0.54530000       0.69740000
   213  C          0.74580000      -0.00100000       0.16910000
   214  C          0.25420000       0.49900000       0.33090000
   215  C          0.25420000       0.00100000       0.83090000
   216  C          0.74580000       0.50100000       0.66910000
   217  C          0.58610000       0.03200000       0.19740000
   218  C          0.41390000       0.53200000       0.30260000
   219  C          0.41390000       0.96800000       0.80260000
   220  C          0.58610000       0.46800000       0.69740000
   221  C          0.71360000       0.09410000       0.42090000
   222  C          0.28640000       0.59410000       0.07910000
   223  C          0.28640000       0.90590000       0.57910000
   224  C          0.71360000       0.40590000       0.92090000
   225  C          0.96300000       0.09150000       0.45550000
   226  C          0.03700000       0.59150000       0.04450000
   227  C          0.03700000       0.90850000       0.54450000
   228  C          0.96300000       0.40850000       0.95550000
   229  C          0.12360000       0.04460000       0.45230000
   230  C          0.87640000       0.54460000       0.04770000
   231  C          0.87640000       0.95540000       0.54770000
   232  C          0.12360000       0.45540000       0.95230000
   233  C          0.03140000       0.00020000       0.41730000
   234  C         -0.03140000       0.50020000       0.08270000
   235  C         -0.03140000      -0.00020000       0.58270000
   236  C          0.03140000       0.49980000       0.91730000
   237  H          0.45460000       0.06400000       0.17410000
   238  H          0.54540000       0.56400000       0.32590000
   239  H          0.54540000       0.93600000       0.82590000
   240  H          0.45460000       0.43600000       0.67410000
   241  H          0.73980000       0.00160000       0.12380000
   242  H          0.26020000       0.50160000       0.37620000
   243  H          0.26020000      -0.00160000       0.87620000
   244  H          0.73980000       0.49840000       0.62380000
   245  H          0.03550000       0.93030000       0.17940000
   246  H          0.96450000       0.43030000       0.32060000
   247  H          0.96450000       0.06970000       0.82060000
   248  H          0.03550000       0.56970000       0.67940000
   249  H          0.94920000       0.90330000       0.27330000
   250  H          0.05080000       0.40330000       0.22670000
   251  H          0.05080000       0.09670000       0.72670000
   252  H          0.94920000       0.59670000       0.77330000
   253  H          0.16080000       0.04930000       0.25400000
   254  H          0.83920000       0.54930000       0.24600000
   255  H          0.83920000       0.95070000       0.74600000
   256  H          0.16080000       0.45070000       0.75400000
   257  H          0.23620000       0.08110000       0.35020000
   258  H          0.76380000       0.58110000       0.14980000
   259  H          0.76380000       0.91890000       0.64980000
   260  H          0.23620000       0.41890000       0.85020000
   261  H          0.14970000       0.96150000       0.41780000
   262  H          0.85030000       0.46150000       0.08220000
   263  H          0.85030000       0.03850000       0.58220000
   264  H          0.14970000       0.53850000       0.91780000
   265  H          0.30880000       0.04030000       0.48290000
   266  H          0.69120000       0.54030000       0.01710000
   267  H          0.69120000       0.95970000       0.51710000
   268  H          0.30880000       0.45970000       0.98290000
   269  H          0.03100000       0.12690000       0.48400000
   270  H         -0.03100000       0.62690000       0.01600000
   271  H         -0.03100000       0.87310000       0.51600000
   272  H          0.03100000       0.37310000       0.98400000
   273  H          0.57820000       0.12980000       0.42130000
   274  H          0.42180000       0.62980000       0.07870000
   275  H          0.42180000       0.87020000       0.57870000
   276  H          0.57820000       0.37020000       0.92130000
   277  H          0.66850000       0.94070000       0.43430000
   278  H          0.33150000       0.44070000       0.06570000
   279  H          0.33150000       0.05930000       0.56570000
   280  H          0.66850000       0.55930000       0.93430000
   281  H          0.52740000       0.87260000       0.41970000
   282  H          0.47260000       0.37260000       0.08030000
   283  H          0.47260000       0.12740000       0.58030000
   284  H          0.52740000       0.62740000       0.91970000
