data_LEZQUE
_symmetry_space_group_name_H-M    'P1'
_symmetry_Int_Tables_number       1
loop_
_symmetry_equiv_pos_site_id
_symmetry_equiv_pos_as_xyz
1 x,y,z
_cell_length_a                   13.808513
_cell_length_b                   5.38464
_cell_length_c                   16.706313
_cell_angle_alpha                90.0
_cell_angle_beta                 102.3319
_cell_angle_gamma                90.0
loop_
_atom_site_label
_atom_site_type_symbol
_atom_site_fract_x
_atom_site_fract_y
_atom_site_fract_z
     1  O          0.76480150       0.30153000       0.44428900
     2  O          0.73519850       0.80153000       0.05571100
     3  O          0.23519850       0.69847000       0.55571100
     4  O          0.26480150       0.19847000       0.94428900
     5  H          0.72380000       0.40310000       0.45250000
     6  H          0.77620000       0.90310000       0.04750000
     7  H          0.27620000       0.59690000       0.54750000
     8  H          0.22380000       0.09690000       0.95250000
     9  O          0.64886110       0.51563000       0.52261800
    10  O          0.85113890       0.01563000       0.97738200
    11  O          0.35113890       0.48437000       0.47738200
    12  O          0.14886110      -0.01563000       0.02261800
    13  O          0.64884120       0.39863000       0.65098800
    14  O          0.85115880       0.89863000       0.84901200
    15  O          0.35115880       0.60137000       0.34901200
    16  O          0.14884120       0.10137000       0.15098800
    17  H          0.61400000       0.52250000       0.64950000
    18  H          0.88600000       0.02250000       0.85050000
    19  H          0.38600000       0.47750000       0.35050000
    20  H          0.11400000      -0.02250000       0.14950000
    21  C          0.79074160       0.15174000       0.51030120
    22  C          0.70925840       0.65174000       0.98969880
    23  C          0.20925840       0.84826000       0.48969880
    24  C          0.29074160       0.34826000       0.01030120
    25  C          0.75112140       0.18023000       0.58009110
    26  C          0.74887860       0.68023000       0.91990890
    27  C          0.24887860       0.81977000       0.41990890
    28  C          0.25112140       0.31977000       0.08009110
    29  C          0.78185150       0.01844000       0.64593120
    30  C          0.71814850       0.51844000       0.85406880
    31  C          0.21814850      -0.01844000       0.35406880
    32  C          0.28185150       0.48156000       0.14593120
    33  H          0.75620000       0.03590000       0.69280000
    34  H          0.74380000       0.53590000       0.80720000
    35  H          0.24380000       0.96410000       0.30720000
    36  H          0.25620000       0.46410000       0.19280000
    37  C          0.84928170       0.83406000       0.64248140
    38  C          0.65071830       0.33406000       0.85751860
    39  C          0.15071830       0.16594000       0.35751860
    40  C          0.34928170       0.66594000       0.14248140
    41  H          0.86920000       0.72670000       0.68650000
    42  H          0.63080000       0.22670000       0.81350000
    43  H          0.13080000       0.27330000       0.31350000
    44  H          0.36920000       0.77330000       0.18650000
    45  C          0.88734170       0.80936000       0.57309140
    46  C          0.61265830       0.30936000       0.92690860
    47  C          0.11265830       0.19064000       0.42690860
    48  C          0.38734170       0.69064000       0.07309140
    49  H          0.93290000       0.68390000       0.57070000
    50  H          0.56710000       0.18390000       0.92930000
    51  H          0.06710000       0.31610000       0.42930000
    52  H          0.43290000       0.81610000       0.07070000
    53  C          0.85944180       0.96596000       0.50738140
    54  C          0.64055820       0.46596000      -0.00738140
    55  C          0.14055820       0.03404000       0.49261860
    56  C          0.35944180       0.53404000       0.00738140
    57  H          0.88640000       0.94780000       0.46130000
    58  H          0.61360000       0.44780000       0.03870000
    59  H          0.11360000       0.05220000       0.53870000
    60  H          0.38640000       0.55220000       0.96130000
    61  C          0.67864150       0.37844000       0.58167110
    62  C          0.82135850       0.87844000       0.91832890
    63  C          0.32135850       0.62156000       0.41832890
    64  C          0.17864150       0.12156000       0.08167110
    65  N          0.47613130       0.22503000       0.35049100
    66  N          0.02386870       0.72503000       0.14950900
    67  N          0.52386870       0.77497000       0.64950900
    68  N          0.97613130       0.27497000       0.85049100
    69  N          0.49166130       0.10423000       0.42000100
    70  N          0.00833870       0.60423000       0.07999900
    71  N          0.50833870       0.89577000       0.57999900
    72  N         -0.00833870       0.39577000       0.92000100
    73  N          0.55369120       0.91783000       0.41590900
    74  N          0.94630880       0.41783000       0.08409100
    75  N          0.44630880       0.08217000       0.58409100
    76  N          0.05369120       0.58217000       0.91590900
    77  H          0.57400000       0.81350000       0.45490000
    78  H          0.92600000       0.31350000       0.04510000
    79  H          0.42600000       0.18650000       0.54510000
    80  H          0.07400000       0.68650000       0.95490000
    81  C          0.53058140       0.11263000       0.30026110
    82  C          0.96941860       0.61263000       0.19973890
    83  C          0.46941860       0.88737000       0.69973890
    84  C          0.03058140       0.38737000       0.80026110
    85  C          0.58086140       0.91283000       0.34234110
    86  C          0.91913860       0.41283000       0.15765890
    87  C          0.41913860       0.08717000       0.65765890
    88  C          0.08086140       0.58717000       0.84234110
    89  C          0.64284160       0.76144000       0.30751120
    90  C          0.85715840       0.26144000       0.19248880
    91  C          0.35715840       0.23856000       0.69248880
    92  C          0.14284160       0.73856000       0.80751120
    93  H          0.67650000       0.62750000       0.33570000
    94  H          0.82350000       0.12750000       0.16430000
    95  H          0.32350000       0.37250000       0.66430000
    96  H          0.17650000       0.87250000       0.83570000
    97  C          0.65137160       0.82054000       0.22964120
    98  C          0.84862840       0.32054000       0.27035880
    99  C          0.34862840       0.17946000       0.77035880
   100  C          0.15137160       0.67946000       0.72964120
   101  H          0.69180000       0.72350000       0.20430000
   102  H          0.80820000       0.22350000       0.29570000
   103  H          0.30820000       0.27650000       0.79570000
   104  H          0.19180000       0.77650000       0.70430000
   105  C          0.60118160       0.02194000       0.18702120
   106  C          0.89881840       0.52194000       0.31297880
   107  C          0.39881840      -0.02194000       0.81297880
   108  C          0.10118160       0.47806000       0.68702120
   109  H          0.60950000       0.05530000       0.13430000
   110  H          0.89050000       0.55530000       0.36570000
   111  H          0.39050000       0.94470000       0.86570000
   112  H          0.10950000       0.44470000       0.63430000
   113  C          0.54021150       0.17154000       0.22051110
   114  C          0.95978850       0.67154000       0.27948890
   115  C          0.45978850       0.82846000       0.77948890
   116  C          0.04021150       0.32846000       0.72051110
   117  H          0.50690000       0.30520000       0.19190000
   118  H         -0.00690000       0.80520000       0.30810000
   119  H          0.49310000       0.69480000       0.80810000
   120  H          0.00690000       0.19480000       0.69190000
