data_LEZZAS
_symmetry_space_group_name_H-M    'P1'
_symmetry_Int_Tables_number       1
loop_
_symmetry_equiv_pos_site_id
_symmetry_equiv_pos_as_xyz
1 x,y,z
_cell_length_a                   10.796913
_cell_length_b                   11.659814
_cell_length_c                   13.432616
_cell_angle_alpha                69.0732
_cell_angle_beta                 66.5582
_cell_angle_gamma                76.0002
loop_
_atom_site_label
_atom_site_type_symbol
_atom_site_fract_x
_atom_site_fract_y
_atom_site_fract_z
     1  P          0.72763400       0.10773300       0.20663300
     2  P          0.27236600       0.89226700       0.79336700
     3  F          0.79306120       0.96952100       0.20946110
     4  F          0.20693880       0.03047900       0.79053890
     5  F          0.80199120       0.15444100       0.07237800
     6  F          0.19800880       0.84555900       0.92762200
     7  F          0.65230900       0.06410900       0.34147700
     8  F          0.34769100       0.93589100       0.65852300
     9  F          0.59844110       0.08518900       0.18920900
    10  F          0.40155890       0.91481100       0.81079100
    11  F          0.85691900       0.13212800       0.22474700
    12  F          0.14308100       0.86787200       0.77525300
    13  F          0.66334900       0.24758700       0.20502800
    14  F          0.33665100       0.75241300       0.79497200
    15  O          0.51917900       0.57817900       0.35285800
    16  O          0.48082100       0.42182100       0.64714200
    17  H          0.54820000       0.57120000       0.41320000
    18  H          0.45180000       0.42880000       0.58680000
    19  O          0.38905900       0.43328800       0.48718800
    20  O          0.61094100       0.56671200       0.51281200
    21  N          0.25226100       0.19839900       0.37782900
    22  N          0.74773900       0.80160100       0.62217100
    23  C          0.42676120       0.50216110       0.39032100
    24  C          0.57323880       0.49783890       0.60967900
    25  C          0.37234130       0.50980110       0.30073100
    26  C          0.62765870       0.49019890       0.69926900
    27  H          0.44950000       0.49630000       0.23320000
    28  H          0.55050000       0.50370000       0.76680000
    29  H          0.32600000       0.59410000       0.27780000
    30  H          0.67400000       0.40590000       0.72220000
    31  C          0.27355120       0.41673110       0.33913110
    32  C          0.72644880       0.58326890       0.66086890
    33  H          0.21600000       0.44540000       0.29100000
    34  H          0.78400000       0.55460000       0.70900000
    35  H          0.21340000       0.41020000       0.41850000
    36  H          0.78660000       0.58980000       0.58150000
    37  C          0.34977120       0.29032110       0.33105110
    38  C          0.65022880       0.70967890       0.66894890
    39  H          0.40390000       0.29500000       0.25070000
    40  H          0.59610000       0.70500000       0.74930000
    41  H          0.41300000       0.26450000       0.37400000
    42  H          0.58700000       0.73550000       0.62600000
    43  C          0.22678130       0.12643110       0.48564110
    44  C          0.77321870       0.87356890       0.51435890
    45  H          0.27700000       0.13040000       0.52830000
    46  H          0.72300000       0.86960000       0.47170000
    47  C          0.12892130       0.04719110       0.53493100
    48  C          0.87107870       0.95280890       0.46506900
    49  H          0.11260000      -0.00400000       0.61100000
    50  H          0.88740000       0.00400000       0.38900000
    51  C          0.05384110       0.04189100       0.47356100
    52  C          0.94615890       0.95810900       0.52643900
    53  C          0.08407130       0.11704110       0.36083100
    54  C          0.91592870       0.88295890       0.63916900
    55  H          0.03560000       0.11450000       0.31620000
    56  H          0.96440000       0.88550000       0.68380000
    57  C          0.18342130       0.19442120       0.31449100
    58  C          0.81657870       0.80557880       0.68550900
    59  H          0.20370000       0.24510000       0.23800000
    60  H          0.79630000       0.75490000       0.76200000
    61  O          0.73047900       0.05227900       0.83691800
    62  O          0.26952100       0.94772100       0.16308200
    63  O          0.87145100       0.39044900       0.36446800
    64  O          0.12854900       0.60955100       0.63553200
    65  O          0.07045900       0.46683900       0.13851800
    66  O          0.92954100       0.53316100       0.86148200
    67  O          0.35268900       0.39752800       0.07011700
    68  O          0.64731100       0.60247200       0.92988300
    69  O          0.65979900       0.82112100       0.96900800
    70  O          0.34020100       0.17887900       0.03099200
    71  C          0.67922830       0.90347870       0.01672120
    72  C          0.32077170       0.09652130       0.98327880
    73  H          0.71070000       0.85600000       0.08150000
    74  H          0.28930000       0.14400000       0.91850000
    75  H          0.59230000       0.95410000       0.04480000
    76  H          0.40770000       0.04590000       0.95520000
    77  C          0.78330840       0.98573870       0.92709120
    78  C          0.21669160       0.01426130       0.07290880
    79  H          0.79890000       0.04390000       0.95840000
    80  H          0.20110000       0.95610000       0.04160000
    81  H          0.87060000       0.93570000       0.89890000
    82  H          0.12940000       0.06430000       0.10110000
    83  C          0.80098870       0.14190110       0.74897110
    84  C          0.19901130       0.85809890       0.25102890
    85  C          0.90458860       0.19167130       0.74859120
    86  C          0.09541140       0.80832870       0.25140880
    87  H          0.93290000       0.16320000       0.81280000
    88  H          0.06710000       0.83680000       0.18720000
    89  C          0.96844870       0.28547130       0.65201120
    90  C          0.03155130       0.71452870       0.34798880
    91  H          0.03810000       0.32130000       0.65290000
    92  H          0.96190000       0.67870000       0.34710000
    93  C          0.93241880       0.32602120       0.55729110
    94  C          0.06758120       0.67397880       0.44270890
    95  H          0.97670000       0.38930000       0.49330000
    96  H          0.02330000       0.61070000       0.50670000
    97  C          0.82861880       0.27311110       0.55488100
    98  C          0.17138120       0.72688890       0.44511900
    99  C          0.79422880       0.30660110       0.45491110
   100  C          0.20577120       0.69339890       0.54508890
   101  C          0.69363870       0.25458120       0.45379110
   102  C          0.30636130       0.74541880       0.54620890
   103  H          0.67230000       0.27670000       0.38670000
   104  H          0.32770000       0.72330000       0.61330000
   105  C          0.62191870       0.16766120       0.55359120
   106  C          0.37808130       0.83233880       0.44640880
   107  H          0.55060000       0.13380000       0.55310000
   108  H          0.44940000       0.86620000       0.44690000
   109  C          0.65263880       0.13120110       0.65053110
   110  C          0.34736120       0.86879890       0.34946890
   111  H          0.60350000       0.07240000       0.71630000
   112  H          0.39650000       0.92760000       0.28370000
   113  C          0.75877880       0.18196110       0.65216100
   114  C          0.24122120       0.81803890       0.34783900
   115  C          0.84438870       0.42931130       0.26025110
   116  C          0.15561130       0.57068870       0.73974890
   117  H          0.74820000       0.46460000       0.27280000
   118  H          0.25180000       0.53540000       0.72720000
   119  H          0.86210000       0.35810000       0.23080000
   120  H          0.13790000       0.64190000       0.76920000
   121  C          0.93702870       0.52542120       0.17719110
   122  C          0.06297130       0.47457880       0.82280890
   123  H          0.90540000       0.57090000       0.11220000
   124  H          0.09460000       0.42910000       0.88780000
   125  H          0.93570000       0.58550000       0.21440000
   126  H          0.06430000       0.41450000       0.78560000
   127  C          0.16436140       0.55357120       0.06291120
   128  C          0.83563860       0.44642880       0.93708880
   129  H          0.18930000       0.59170000       0.10630000
   130  H          0.81070000       0.40830000       0.89370000
   131  H          0.12270000       0.61990000       0.01110000
   132  H          0.87730000       0.38010000      -0.01110000
   133  C          0.28850130       0.48686120      -0.00416110
   134  C          0.71149870       0.51313880       0.00416110
   135  H          0.26250000       0.44550000       0.95540000
   136  H          0.73750000       0.55450000       0.04460000
   137  H          0.35230000       0.54670000       0.93870000
   138  H          0.64770000       0.45330000       0.06130000
   139  C          0.47031130       0.32799130       0.01218110
   140  C          0.52968870       0.67200870       0.98781890
   141  H          0.51240000       0.27050000       0.06790000
   142  H          0.48760000       0.72950000       0.93210000
   143  H          0.53690000       0.38570000       0.95580000
   144  H          0.46310000       0.61430000       0.04420000
   145  C          0.55656860       0.74557870       0.04797110
   146  C          0.44343140       0.25442130       0.95202890
   147  H          0.58600000       0.68900000       0.11170000
   148  H          0.41400000       0.31100000       0.88830000
   149  H          0.47250000       0.79770000       0.07910000
   150  H          0.52750000       0.20230000       0.92090000
