data_LIBSIZ
_symmetry_space_group_name_H-M    'P1'
_symmetry_Int_Tables_number       1
loop_
_symmetry_equiv_pos_site_id
_symmetry_equiv_pos_as_xyz
1 x,y,z
_cell_length_a                   13.5941
_cell_length_b                   22.9322
_cell_length_c                   9.92118
_cell_angle_alpha                90.0
_cell_angle_beta                 90.0
_cell_angle_gamma                90.0
loop_
_atom_site_label
_atom_site_type_symbol
_atom_site_fract_x
_atom_site_fract_y
_atom_site_fract_z
     1  I         -0.00000000       0.46539200       0.21365500
     2  I         -0.00000000       0.53460800       0.71365500
     3  I          0.50000000       0.96539200       0.21365500
     4  I          0.50000000       0.03460800       0.71365500
     5  I          0.50000000       0.60410200       0.00391500
     6  I          0.50000000       0.39589800       0.50391500
     7  I         -0.00000000       0.10410200       0.00391500
     8  I          0.00000000       0.89589800       0.50391500
     9  N          0.00000000       0.61703000       0.30808000
    10  N          0.00000000       0.38297000       0.80808000
    11  N          0.50000000       0.11703000       0.30808000
    12  N          0.50000000       0.88297000       0.80808000
    13  H          0.00000000       0.58550000       0.30612000
    14  H          0.00000000       0.41450000       0.80612000
    15  H          0.50000000       0.08550000       0.30612000
    16  H          0.50000000       0.91450000       0.80612000
    17  N          0.77124000       0.49892000       0.42565000
    18  N          0.22876000       0.50108000       0.92565000
    19  N          0.77124000       0.50108000       0.92565000
    20  N          0.22876000       0.49892000       0.42565000
    21  N          0.27124000      -0.00108000       0.42565000
    22  N          0.72876000       0.00108000       0.92565000
    23  N          0.27124000       0.00108000       0.92565000
    24  N          0.72876000      -0.00108000       0.42565000
    25  N          0.78074000       0.58452000       0.33685000
    26  N          0.21926000       0.41548000       0.83685000
    27  N          0.78074000       0.41548000       0.83685000
    28  N          0.21926000       0.58452000       0.33685000
    29  N          0.28074000       0.08452000       0.33685000
    30  N          0.71926000       0.91548000       0.83685000
    31  N          0.28074000       0.91548000       0.83685000
    32  N          0.71926000       0.08452000       0.33685000
    33  C          0.82644000       0.54593000       0.41576000
    34  C          0.17356000       0.45407000       0.91576000
    35  C          0.82644000       0.45407000       0.91576000
    36  C          0.17356000       0.54593000       0.41576000
    37  C          0.32644000       0.04593000       0.41576000
    38  C          0.67356000       0.95407000       0.91576000
    39  C          0.32644000       0.95407000       0.91576000
    40  C          0.67356000       0.04593000       0.41576000
    41  H          0.88840000       0.55140000       0.45780000
    42  H          0.11160000       0.44860000       0.95780000
    43  H          0.88840000       0.44860000       0.95780000
    44  H          0.11160000       0.55140000       0.45780000
    45  H          0.38840000       0.05140000       0.45780000
    46  H          0.61160000       0.94860000       0.95780000
    47  H          0.38840000       0.94860000       0.95780000
    48  H          0.61160000       0.05140000       0.45780000
    49  C          0.68655000       0.50583000       0.35057000
    50  C          0.31345000       0.49417000       0.85057000
    51  C          0.68655000       0.49417000       0.85057000
    52  C          0.31345000       0.50583000       0.35057000
    53  C          0.18655000       0.00583000       0.35057000
    54  C          0.81345000      -0.00583000       0.85057000
    55  C          0.18655000      -0.00583000       0.85057000
    56  C          0.81345000       0.00583000       0.35057000
    57  H          0.63490000       0.47830000       0.34010000
    58  H          0.36510000       0.52170000       0.84010000
    59  H          0.63490000       0.52170000       0.84010000
    60  H          0.36510000       0.47830000       0.34010000
    61  H          0.13490000       0.97830000       0.34010000
    62  H          0.86510000       0.02170000       0.84010000
    63  H          0.13490000       0.02170000       0.84010000
    64  H          0.86510000       0.97830000       0.34010000
    65  C          0.69185000       0.56013000       0.29437000
    66  C          0.30815000       0.43987000       0.79437000
    67  C          0.69185000       0.43987000       0.79437000
    68  C          0.30815000       0.56013000       0.29437000
    69  C          0.19185000       0.06013000       0.29437000
    70  C          0.80815000       0.93987000       0.79437000
    71  C          0.19185000       0.93987000       0.79437000
    72  C          0.80815000       0.06013000       0.29437000
    73  H          0.64430000       0.57780000       0.23740000
    74  H          0.35570000       0.42220000       0.73740000
    75  H          0.64430000       0.42220000       0.73740000
    76  H          0.35570000       0.57780000       0.23740000
    77  H          0.14430000       0.07780000       0.23740000
    78  H          0.85570000       0.92220000       0.73740000
    79  H          0.14430000       0.92220000       0.73740000
    80  H          0.85570000       0.07780000       0.23740000
    81  C          0.80145000       0.44463000       0.49408000
    82  C          0.19855000       0.55537000      -0.00592000
    83  C          0.80145000       0.55537000      -0.00592000
    84  C          0.19855000       0.44463000       0.49408000
    85  C          0.30145000       0.94463000       0.49408000
    86  C          0.69855000       0.05537000      -0.00592000
    87  C          0.30145000       0.05537000      -0.00592000
    88  C          0.69855000       0.94463000       0.49408000
    89  H          0.84510000       0.42230000       0.43480000
    90  H          0.15490000       0.57770000       0.93480000
    91  H          0.84510000       0.57770000       0.93480000
    92  H          0.15490000       0.42230000       0.43480000
    93  H          0.34510000       0.92230000       0.43480000
    94  H          0.65490000       0.07770000       0.93480000
    95  H          0.34510000       0.07770000       0.93480000
    96  H          0.65490000       0.92230000       0.43480000
    97  H          0.74300000       0.42130000       0.51500000
    98  H          0.25700000       0.57870000       0.01500000
    99  H          0.74300000       0.57870000       0.01500000
   100  H          0.25700000       0.42130000       0.51500000
   101  H          0.24300000       0.92130000       0.51500000
   102  H          0.75700000       0.07870000       0.01500000
   103  H          0.24300000       0.07870000       0.01500000
   104  H          0.75700000       0.92130000       0.51500000
   105  H          0.83610000       0.45420000       0.57770000
   106  H          0.16390000       0.54580000       0.07770000
   107  H          0.83610000       0.54580000       0.07770000
   108  H          0.16390000       0.45420000       0.57770000
   109  H          0.33610000       0.95420000       0.57770000
   110  H          0.66390000       0.04580000       0.07770000
   111  H          0.33610000       0.04580000       0.07770000
   112  H          0.66390000       0.95420000       0.57770000
   113  C          0.81674000       0.64083000       0.30036000
   114  C          0.18326000       0.35917000       0.80036000
   115  C          0.81674000       0.35917000       0.80036000
   116  C          0.18326000       0.64083000       0.30036000
   117  C          0.31674000       0.14083000       0.30036000
   118  C          0.68326000       0.85917000       0.80036000
   119  C          0.31674000       0.85917000       0.80036000
   120  C          0.68326000       0.14083000       0.30036000
   121  C          0.91614000       0.65223000       0.28907000
   122  C          0.08386000       0.34777000       0.78907000
   123  C          0.91614000       0.34777000       0.78907000
   124  C          0.08386000       0.65223000       0.28907000
   125  C          0.41614000       0.15223000       0.28907000
   126  C          0.58386000       0.84777000       0.78907000
   127  C          0.41614000       0.84777000       0.78907000
   128  C          0.58386000       0.15223000       0.28907000
   129  C          0.94495000       0.71063000       0.26226000
   130  C          0.05505000       0.28937000       0.76226000
   131  C          0.94495000       0.28937000       0.76226000
   132  C          0.05505000       0.71063000       0.26226000
   133  C          0.44495000       0.21063000       0.26226000
   134  C          0.55505000       0.78937000       0.76226000
   135  C          0.44495000       0.78937000       0.76226000
   136  C          0.55505000       0.21063000       0.26226000
   137  C          0.87894000       0.75513000       0.24246000
   138  C          0.12106000       0.24487000       0.74246000
   139  C          0.87894000       0.24487000       0.74246000
   140  C          0.12106000       0.75513000       0.24246000
   141  C          0.37894000       0.25513000       0.24246000
   142  C          0.62106000       0.74487000       0.74246000
   143  C          0.37894000       0.74487000       0.74246000
   144  C          0.62106000       0.25513000       0.24246000
   145  H          0.90130000       0.79360000       0.22460000
   146  H          0.09870000       0.20640000       0.72460000
   147  H          0.90130000       0.20640000       0.72460000
   148  H          0.09870000       0.79360000       0.22460000
   149  H          0.40130000       0.29360000       0.22460000
   150  H          0.59870000       0.70640000       0.72460000
   151  H          0.40130000       0.70640000       0.72460000
   152  H          0.59870000       0.29360000       0.22460000
   153  C          0.77985000       0.74323000       0.24886000
   154  C          0.22015000       0.25677000       0.74886000
   155  C          0.77985000       0.25677000       0.74886000
   156  C          0.22015000       0.74323000       0.24886000
   157  C          0.27985000       0.24323000       0.24886000
   158  C          0.72015000       0.75677000       0.74886000
   159  C          0.27985000       0.75677000       0.74886000
   160  C          0.72015000       0.24323000       0.24886000
   161  C          0.74964000       0.68523000       0.27976000
   162  C          0.25036000       0.31477000       0.77976000
   163  C          0.74964000       0.31477000       0.77976000
   164  C          0.25036000       0.68523000       0.27976000
   165  C          0.24964000       0.18523000       0.27976000
   166  C          0.75036000       0.81477000       0.77976000
   167  C          0.24964000       0.81477000       0.77976000
   168  C          0.75036000       0.18523000       0.27976000
   169  H          0.68130000       0.67680000       0.28640000
   170  H          0.31870000       0.32320000       0.78640000
   171  H          0.68130000       0.32320000       0.78640000
   172  H          0.31870000       0.67680000       0.28640000
   173  H          0.18130000       0.17680000       0.28640000
   174  H          0.81870000       0.82320000       0.78640000
   175  H          0.18130000       0.82320000       0.78640000
   176  H          0.81870000       0.17680000       0.28640000
   177  C          0.70255000       0.79093000       0.23137000
   178  C          0.29745000       0.20907000       0.73137000
   179  C          0.70255000       0.20907000       0.73137000
   180  C          0.29745000       0.79093000       0.23137000
   181  C          0.20255000       0.29093000       0.23137000
   182  C          0.79745000       0.70907000       0.73137000
   183  C          0.20255000       0.70907000       0.73137000
   184  C          0.79745000       0.29093000       0.23137000
   185  C          0.74855000       0.85013000       0.19948000
   186  C          0.25145000       0.14987000       0.69948000
   187  C          0.74855000       0.14987000       0.69948000
   188  C          0.25145000       0.85013000       0.19948000
   189  C          0.24855000       0.35013000       0.19948000
   190  C          0.75145000       0.64987000       0.69948000
   191  C          0.24855000       0.64987000       0.69948000
   192  C          0.75145000       0.35013000       0.19948000
   193  H          0.79840000       0.85940000       0.26750000
   194  H          0.20160000       0.14060000       0.76750000
   195  H          0.79840000       0.14060000       0.76750000
   196  H          0.20160000       0.85940000       0.26750000
   197  H          0.29840000       0.35940000       0.26750000
   198  H          0.70160000       0.64060000       0.76750000
   199  H          0.29840000       0.64060000       0.76750000
   200  H          0.70160000       0.35940000       0.26750000
   201  H          0.69730000       0.88020000       0.20010000
   202  H          0.30270000       0.11980000       0.70010000
   203  H          0.69730000       0.11980000       0.70010000
   204  H          0.30270000       0.88020000       0.20010000
   205  H          0.19730000       0.38020000       0.20010000
   206  H          0.80270000       0.61980000       0.70010000
   207  H          0.19730000       0.61980000       0.70010000
   208  H          0.80270000       0.38020000       0.20010000
   209  H          0.77940000       0.84870000       0.11020000
   210  H          0.22060000       0.15130000       0.61020000
   211  H          0.77940000       0.15130000       0.61020000
   212  H          0.22060000       0.84870000       0.11020000
   213  H          0.27940000       0.34870000       0.11020000
   214  H          0.72060000       0.65130000       0.61020000
   215  H          0.27940000       0.65130000       0.61020000
   216  H          0.72060000       0.34870000       0.11020000
   217  C          0.63255000       0.77423000       0.11628000
   218  C          0.36745000       0.22577000       0.61628000
   219  C          0.63255000       0.22577000       0.61628000
   220  C          0.36745000       0.77423000       0.11628000
   221  C          0.13255000       0.27423000       0.11628000
   222  C          0.86745000       0.72577000       0.61628000
   223  C          0.13255000       0.72577000       0.61628000
   224  C          0.86745000       0.27423000       0.11628000
   225  H          0.67070000       0.76680000       0.03420000
   226  H          0.32930000       0.23320000       0.53420000
   227  H          0.67070000       0.23320000       0.53420000
   228  H          0.32930000       0.76680000       0.03420000
   229  H          0.17070000       0.26680000       0.03420000
   230  H          0.82930000       0.73320000       0.53420000
   231  H          0.17070000       0.73320000       0.53420000
   232  H          0.82930000       0.26680000       0.03420000
   233  H          0.58630000       0.80630000       0.09990000
   234  H          0.41370000       0.19370000       0.59990000
   235  H          0.58630000       0.19370000       0.59990000
   236  H          0.41370000       0.80630000       0.09990000
   237  H          0.08630000       0.30630000       0.09990000
   238  H          0.91370000       0.69370000       0.59990000
   239  H          0.08630000       0.69370000       0.59990000
   240  H          0.91370000       0.30630000       0.09990000
   241  H          0.59590000       0.73900000       0.14090000
   242  H          0.40410000       0.26100000       0.64090000
   243  H          0.59590000       0.26100000       0.64090000
   244  H          0.40410000       0.73900000       0.14090000
   245  H          0.09590000       0.23900000       0.14090000
   246  H          0.90410000       0.76100000       0.64090000
   247  H          0.09590000       0.76100000       0.64090000
   248  H          0.90410000       0.23900000       0.14090000
   249  C          0.64295000       0.79783000       0.36268000
   250  C          0.35705000       0.20217000       0.86268000
   251  C          0.64295000       0.20217000       0.86268000
   252  C          0.35705000       0.79783000       0.36268000
   253  C          0.14295000       0.29783000       0.36268000
   254  C          0.85705000       0.70217000       0.86268000
   255  C          0.14295000       0.70217000       0.86268000
   256  C          0.85705000       0.29783000       0.36268000
   257  H          0.61500000       0.76000000       0.38850000
   258  H          0.38500000       0.24000000       0.88850000
   259  H          0.61500000       0.24000000       0.88850000
   260  H          0.38500000       0.76000000       0.38850000
   261  H          0.11500000       0.26000000       0.38850000
   262  H          0.88500000       0.74000000       0.88850000
   263  H          0.11500000       0.74000000       0.88850000
   264  H          0.88500000       0.26000000       0.38850000
   265  H          0.58960000       0.82590000       0.34830000
   266  H          0.41040000       0.17410000       0.84830000
   267  H          0.58960000       0.17410000       0.84830000
   268  H          0.41040000       0.82590000       0.34830000
   269  H          0.08960000       0.32590000       0.34830000
   270  H          0.91040000       0.67410000       0.84830000
   271  H          0.08960000       0.67410000       0.84830000
   272  H          0.91040000       0.32590000       0.34830000
   273  H          0.68620000       0.81190000       0.43460000
   274  H          0.31380000       0.18810000       0.93460000
   275  H          0.68620000       0.18810000       0.93460000
   276  H          0.31380000       0.81190000       0.43460000
   277  H          0.18620000       0.31190000       0.43460000
   278  H          0.81380000       0.68810000       0.93460000
   279  H          0.18620000       0.68810000       0.93460000
   280  H          0.81380000       0.31190000       0.43460000
   281  I          0.50000000       0.63853000       0.46426000
   282  I          0.50000000       0.36147000       0.96426000
   283  I         -0.00000000       0.13853000       0.46426000
   284  I         -0.00000000       0.86147000       0.96426000
   285  C          0.50000000       0.56947000       0.59431700
   286  C          0.50000000       0.43053000       0.09431700
   287  C         -0.00000000       0.06947000       0.59431700
   288  C         -0.00000000       0.93053000       0.09431700
   289  H          0.56780000       0.55670000       0.61060000
   290  H          0.43220000       0.44330000       0.11060000
   291  H          0.56780000       0.44330000       0.11060000
   292  H          0.43220000       0.55670000       0.61060000
   293  H          0.06780000       0.05670000       0.61060000
   294  H          0.93220000       0.94330000       0.11060000
   295  H          0.06780000       0.94330000       0.11060000
   296  H          0.93220000       0.05670000       0.61060000
