data_LIBXOK
_symmetry_space_group_name_H-M    'P1'
_symmetry_Int_Tables_number       1
loop_
_symmetry_equiv_pos_site_id
_symmetry_equiv_pos_as_xyz
1 x,y,z
_cell_length_a                   8.90032
_cell_length_b                   10.32872
_cell_length_c                   11.22883
_cell_angle_alpha                90.15101
_cell_angle_beta                 108.48601
_cell_angle_gamma                110.76001
loop_
_atom_site_label
_atom_site_type_symbol
_atom_site_fract_x
_atom_site_fract_y
_atom_site_fract_z
     1  I          0.92379800       0.04257515       0.57889415
     2  I          0.07620200       0.95742485       0.42110585
     3  I          0.75622200       0.14090315       0.77092915
     4  I          0.24377800       0.85909685       0.22907085
     5  N          0.55333000       0.37814190       0.39151190
     6  N          0.44667000       0.62185810       0.60848810
     7  C          0.40833000       0.36922000       0.28942000
     8  C          0.59167000       0.63078000       0.71058000
     9  C          0.27893000       0.24012000       0.22952000
    10  C          0.72107000       0.75988000       0.77048000
    11  H          0.28800000       0.15740000       0.25700000
    12  H          0.71200000       0.84260000       0.74300000
    13  C          0.13943000       0.23653000       0.13023000
    14  C          0.86057000       0.76347000       0.86977000
    15  H          0.05470000       0.15070000       0.09020000
    16  H          0.94530000       0.84930000       0.90980000
    17  C          0.12153000       0.35963000       0.08762000
    18  C          0.87847000       0.64037000       0.91238000
    19  H          0.02520000       0.35530000       0.02080000
    20  H         -0.02520000       0.64470000       0.97920000
    21  C          0.24643000       0.48583000       0.14502000
    22  C          0.75357000       0.51417000       0.85498000
    23  H          0.23510000       0.56750000       0.11670000
    24  H          0.76490000       0.43250000       0.88330000
    25  C          0.39183000       0.49322000       0.24652000
    26  C          0.60817000       0.50678000       0.75348000
    27  C          0.52363000       0.62242000       0.30682000
    28  C          0.47637000       0.37758000       0.69318000
    29  H          0.51490000       0.70530000       0.27950000
    30  H          0.48510000       0.29470000       0.72050000
    31  C          0.66193000       0.62612000       0.40362000
    32  C          0.33807000       0.37388000       0.59638000
    33  H          0.74800000       0.71180000       0.44200000
    34  H          0.25200000       0.28820000       0.55800000
    35  C          0.67893000       0.50082000       0.44862000
    36  C          0.32107000       0.49918000       0.55138000
    37  C          0.83073000       0.50832000       0.55202000
    38  C          0.16927000       0.49168000       0.44798000
    39  H          0.84350000       0.42500000       0.57360000
    40  H          0.15650000       0.57500000       0.42640000
    41  C          0.95223000       0.62673000       0.61732000
    42  C          0.04777000       0.37327000       0.38268000
    43  H          0.93550000       0.70830000       0.59410000
    44  H          0.06450000       0.29170000       0.40590000
    45  C          0.10863000       0.64423000       0.72102000
    46  C          0.89137000       0.35577000       0.27898000
    47  C          0.22233000       0.77943000       0.77522000
    48  C          0.77767000       0.22057000       0.22478000
    49  H          0.19550000       0.85470000       0.74400000
    50  H          0.80450000       0.14530000       0.25600000
    51  C          0.37253000       0.80472000       0.87342000
    52  C          0.62747000       0.19528000       0.12658000
    53  H          0.44610000       0.89580000       0.90770000
    54  H          0.55390000       0.10420000       0.09230000
    55  C          0.41343000       0.69272000       0.92092000
    56  C          0.58657000       0.30728000       0.07908000
    57  C          0.30243000       0.55592000       0.86902000
    58  C          0.69757000       0.44408000       0.13098000
    59  H          0.33020000       0.48110000       0.90080000
    60  H          0.66980000       0.51890000       0.09920000
    61  C          0.15133000       0.53162000       0.77072000
    62  C          0.84867000       0.46838000       0.22928000
    63  H          0.07720000       0.44040000       0.73700000
    64  H          0.92280000       0.55960000       0.26300000
    65  C          0.67424000       0.84323000       0.07703000
    66  C          0.32576000       0.15677000       0.92297000
    67  H          0.77390000       0.83790000       0.13950000
    68  H          0.22610000       0.16210000       0.86050000
    69  H          0.61910000       0.88520000       0.11710000
    70  H          0.38090000       0.11480000       0.88290000
    71  H          0.70720000       0.89860000       0.01450000
    72  H          0.29280000       0.10140000       0.98550000
    73  C          0.56244000       0.24592000       0.43763000
    74  C          0.43756000       0.75408000       0.56237000
    75  H          0.59290000       0.19860000       0.38080000
    76  H          0.40710000       0.80140000       0.61920000
    77  H          0.45310000       0.18740000       0.44130000
    78  H          0.54690000       0.81260000       0.55870000
    79  H          0.64700000       0.26600000       0.52060000
    80  H          0.35300000       0.73400000       0.47940000
    81  O          0.55862000       0.70550170       0.01738170
    82  O          0.44138000       0.29449830       0.98261830
