data_LIBXEB
_symmetry_space_group_name_H-M    'P1'
_symmetry_Int_Tables_number       1
loop_
_symmetry_equiv_pos_site_id
_symmetry_equiv_pos_as_xyz
1 x,y,z
_cell_length_a                   7.49772
_cell_length_b                   27.52087
_cell_length_c                   10.57823
_cell_angle_alpha                90.0
_cell_angle_beta                 107.98101
_cell_angle_gamma                90.0
loop_
_atom_site_label
_atom_site_type_symbol
_atom_site_fract_x
_atom_site_fract_y
_atom_site_fract_z
     1  C          0.96632810       0.25358500       0.72699130
     2  C          0.03367190       0.75358500       0.27300870
     3  H          0.85320000       0.25430000       0.75480000
     4  H          0.14680000       0.75430000       0.24520000
     5  H          0.07090000       0.24030000       0.79900000
     6  H          0.92910000       0.74030000       0.20100000
     7  H          0.94420000       0.23310000       0.64790000
     8  H          0.05580000       0.73310000       0.35210000
     9  C          0.51723180       0.34939400       0.76898110
    10  C          0.48276820       0.84939400       0.23101890
    11  H          0.64130000       0.34400000       0.83340000
    12  H          0.35870000       0.84400000       0.16660000
    13  H          0.43950000       0.36800000       0.81110000
    14  H          0.56050000       0.86800000       0.18890000
    15  H          0.53060000       0.36760000       0.69270000
    16  H          0.46940000       0.86760000       0.30730000
    17  C          0.14875150       0.31864400       0.47248900
    18  C          0.85124850       0.81864400       0.52751100
    19  H          0.01550000       0.33000000       0.44300000
    20  H         -0.01550000       0.83000000       0.55700000
    21  C          0.26409160       0.36131400       0.45065100
    22  C          0.73590840       0.86131400       0.54934900
    23  C          0.18979190       0.40789400       0.45430120
    24  C          0.81020810       0.90789400       0.54569880
    25  H          0.07020000       0.41140000       0.46670000
    26  H          0.92980000       0.91140000       0.53330000
    27  C          0.28992000       0.44898500       0.43996150
    28  C          0.71008000       0.94898500       0.56003850
    29  H          0.23900000       0.48040000       0.44340000
    30  H          0.76100000       0.98040000       0.55660000
    31  C          0.46372000       0.44419500       0.42066130
    32  C          0.53628000       0.94419500       0.57933870
    33  H          0.53190000       0.47220000       0.41070000
    34  H          0.46810000       0.97220000       0.58930000
    35  C          0.53802180       0.39806500       0.41597120
    36  C          0.46197820       0.89806500       0.58402880
    37  H          0.65700000       0.39480000       0.40250000
    38  H          0.34300000       0.89480000       0.59750000
    39  C          0.43936160       0.35676400       0.43093100
    40  C          0.56063840       0.85676400       0.56906900
    41  H          0.49110000       0.32540000       0.42770000
    42  H          0.50890000       0.82540000       0.57230000
    43  C          0.15177150       0.27190400       0.39388900
    44  C          0.84822850       0.77190400       0.60611100
    45  H          0.28060000       0.25850000       0.42140000
    46  H          0.71940000       0.75850000       0.57860000
    47  H          0.06840000       0.24750000       0.41520000
    48  H          0.93160000       0.74750000       0.58480000
    49  C          0.76595820       0.22912400       0.13203130
    50  C          0.23404180       0.72912400       0.86796870
    51  H          0.62990000       0.23120000       0.09040000
    52  H          0.37010000       0.73120000       0.90960000
    53  H          0.79320000       0.21040000       0.21460000
    54  H          0.20680000       0.71040000       0.78540000
    55  H          0.82260000       0.21300000       0.07120000
    56  H          0.17740000       0.71300000       0.92880000
    57  C          0.29312000       0.32193500       0.10254120
    58  C          0.70688000       0.82193500       0.89745880
    59  H          0.36060000       0.34190000       0.17900000
    60  H          0.63940000       0.84190000       0.82100000
    61  H          0.17870000       0.33880000       0.05100000
    62  H          0.82130000       0.83880000       0.94900000
    63  H          0.37330000       0.31620000       0.04630000
    64  H          0.62670000       0.81620000       0.95370000
    65  N          0.19213130       0.30533300       0.61750800
    66  N          0.80786870       0.80533300       0.38249200
    67  N          0.08962130       0.28063300       0.24774800
    68  N          0.91037870       0.78063300       0.75225200
    69  O          0.09916160       0.34000300       0.80956900
    70  O          0.90083840       0.84000300       0.19043100
    71  O          0.86421870       0.33296400       0.58897100
    72  O          0.13578130       0.83296400       0.41102900
    73  O          0.39274130       0.26732300       0.82825800
    74  O          0.60725870       0.76732300       0.17174200
    75  O          0.50313120       0.27010300       0.63079800
    76  O          0.49686880       0.77010300       0.36920200
    77  O          0.78287870       0.30992400       0.26240100
    78  O          0.21712130       0.80992400       0.73759900
    79  O          0.84607850       0.31251400       0.04580900
    80  O          0.15392150       0.81251400       0.95419100
    81  O          0.39687130       0.24472400       0.25020900
    82  O          0.60312870       0.74472400       0.74979100
    83  O          0.12785140       0.23783300       0.04624800
    84  O          0.87214860       0.73783300       0.95375200
    85  S          0.02138400       0.31294810       0.68983300
    86  S         -0.02138400       0.81294810       0.31016700
    87  S          0.40987400       0.29297090       0.71457200
    88  S          0.59012600       0.79297090       0.28542800
    89  S          0.85946600       0.28784990       0.16769300
    90  S          0.14053400       0.78784990       0.83230700
    91  S          0.23370400       0.26619390       0.15854200
    92  S          0.76629600       0.76619390       0.84145800
    93  C          0.59945180       0.16320400       0.50523130
    94  C          0.40054820       0.66320400       0.49476870
    95  H          0.73030000       0.16330000       0.56220000
    96  H          0.26970000       0.66330000       0.43780000
    97  H          0.52580000       0.18520000       0.54240000
    98  H          0.47420000       0.68520000       0.45760000
    99  H          0.59320000       0.17410000       0.41580000
   100  H          0.40680000       0.67410000       0.58420000
   101  C          0.06587180       0.07691400       0.54490110
   102  C          0.93412820       0.57691400       0.45509890
   103  H         -0.01780000       0.08630000       0.59600000
   104  H          0.01780000       0.58630000       0.40400000
   105  H          0.18080000       0.06270000       0.60480000
   106  H          0.81920000       0.56270000       0.39520000
   107  H          0.00280000       0.05300000       0.47720000
   108  H         -0.00280000       0.55300000       0.52280000
   109  C          0.22839140       0.08704400       0.26082900
   110  C          0.77160860       0.58704400       0.73917100
   111  H          0.34670000       0.07390000       0.24920000
   112  H          0.65330000       0.57390000       0.75080000
   113  C          0.09951150       0.04376400       0.24983900
   114  C          0.90048850       0.54376400       0.75016100
   115  C          0.18273180      -0.00164400       0.28740120
   116  C          0.81726820       0.49835600       0.71259880
   117  H          0.31550000      -0.00450000       0.31480000
   118  H          0.68450000       0.49550000       0.68520000
   119  C          0.07352000       0.95742500       0.28504150
   120  C          0.92648000       0.45742500       0.71495850
   121  H          0.13120000       0.92680000       0.31110000
   122  H          0.86880000       0.42680000       0.68890000
   123  C          0.87928000       0.96153500       0.24435140
   124  C          0.12072000       0.46153500       0.75564860
   125  H          0.80400000       0.93360000       0.24200000
   126  H          0.19600000       0.43360000       0.75800000
   127  C          0.79514810       0.00644500       0.20706120
   128  C          0.20485190       0.50644500       0.79293880
   129  H          0.66240000       0.00910000       0.18010000
   130  H          0.33760000       0.50910000       0.81990000
   131  C          0.90384840       0.04754400       0.20888100
   132  C          0.09615160       0.54754400       0.79111900
   133  H          0.84540000       0.07810000       0.18240000
   134  H          0.15460000       0.57810000       0.81760000
   135  C          0.16180140       0.12717400       0.15626900
   136  C          0.83819860       0.62717400       0.84373100
   137  H          0.04040000       0.14020000       0.16000000
   138  H          0.95960000       0.64020000       0.84000000
   139  H          0.25390000       0.15410000       0.17700000
   140  H          0.74610000       0.65410000       0.82300000
   141  O          0.48290130       0.09715400       0.09374900
   142  O          0.51709870       0.59715400       0.90625100
   143  C          0.86162810       0.04969400       0.86753880
   144  C          0.13837190       0.54969400       0.13246120
   145  H          0.73840000       0.04820000       0.79970000
   146  H          0.26160000       0.54820000       0.20030000
   147  H          0.85520000       0.03370000       0.94880000
   148  H          0.14480000       0.53370000       0.05120000
   149  H          0.95440000       0.03310000       0.83480000
   150  H          0.04560000       0.53310000       0.16520000
   151  N          0.28380120       0.10993300       0.39746800
   152  N          0.71619880       0.60993300       0.60253200
   153  N          0.13925120       0.10888300       0.01961800
   154  N          0.86074880       0.60888300       0.98038200
   155  O          0.50406140       0.08959400       0.62587900
   156  O          0.49593860       0.58959400       0.37412100
   157  O          0.60086130       0.07339400       0.42739100
   158  O          0.39913870       0.57339400       0.57260900
   159  O          0.21207140       0.16389300       0.56668800
   160  O          0.78792860       0.66389300       0.43331200
   161  O          0.96360880       0.14375300       0.35982800
   162  O          0.03639120       0.64375300       0.64017200
   163  C          0.36291160       0.15891400       0.89998890
   164  C          0.63708840       0.65891400       0.10001110
   165  H          0.34960000       0.18570000       0.95730000
   166  H          0.65040000       0.68570000       0.04270000
   167  H          0.26760000       0.16200000       0.81290000
   168  H          0.73240000       0.66200000       0.18710000
   169  H          0.48800000       0.16000000       0.88910000
   170  H          0.51200000       0.66000000       0.11090000
   171  O          0.29541150       0.06613300       0.87367900
   172  O          0.70458850       0.56613300       0.12632100
   173  O          0.80331880       0.13321300       0.96374200
   174  O          0.19668120       0.63321300       0.03625800
   175  O          0.95185880       0.13246300       0.78520300
   176  O          0.04814120       0.63246300       0.21479700
   177  S          0.50821400       0.10411510       0.49683200
   178  S          0.49178600       0.60411510       0.50316800
   179  S          0.12280400       0.12851990       0.46740200
   180  S          0.87719600       0.62851990       0.53259800
   181  S          0.33350400       0.10350210       0.97272800
   182  S          0.66649600       0.60350210       0.02727200
   183  S          0.92771600       0.11067190       0.90218800
   184  S          0.07228400       0.61067190       0.09781200
   185  C          0.56284000       0.43439900       0.08436180
   186  C          0.43716000       0.93439900       0.91563820
   187  H          0.49000000       0.43360000       0.14700000
   188  H          0.51000000       0.93360000       0.85300000
   189  H          0.53340000       0.40560000       0.02710000
   190  H          0.46660000       0.90560000       0.97290000
   191  H          0.53090000       0.46370000       0.02960000
   192  H          0.46910000       0.96370000       0.97040000
   193  C          0.89394000       0.43675700       0.07042000
   194  C          0.10606000       0.93675700       0.92958000
   195  H          0.85610000       0.46450000       0.00990000
   196  H          0.14390000       0.96450000      -0.00990000
   197  H          0.87850000       0.40660000       0.01870000
   198  H          0.12150000       0.90660000       0.98130000
   199  H          0.02560000       0.44040000       0.12390000
   200  H          0.97440000       0.94040000       0.87610000
   201  O          0.81332000       0.47408400       0.25429110
   202  O          0.18668000       0.97408400       0.74570890
   203  H          0.75670000       0.49920000       0.21750000
   204  H          0.24330000      -0.00080000       0.78250000
   205  C          0.77213000       0.43476500       0.16156160
   206  C          0.22787000       0.93476500       0.83843840
   207  H          0.80160000       0.40380000       0.21340000
   208  H          0.19840000       0.90380000       0.78660000
