data_LICBEG
_symmetry_space_group_name_H-M    'P1'
_symmetry_Int_Tables_number       1
loop_
_symmetry_equiv_pos_site_id
_symmetry_equiv_pos_as_xyz
1 x,y,z
_cell_length_a                   9.44403
_cell_length_b                   10.83914
_cell_length_c                   11.77284
_cell_angle_alpha                111.0842
_cell_angle_beta                 110.2072
_cell_angle_gamma                97.9562
loop_
_atom_site_label
_atom_site_type_symbol
_atom_site_fract_x
_atom_site_fract_y
_atom_site_fract_z
     1  I          0.52285200       0.87289319       0.77184618
     2  I          0.47714800       0.12710681       0.22815382
     3  I          0.16604200       0.24407200       0.40314200
     4  I          0.83395800       0.75592800       0.59685800
     5  F          0.84002000       0.12532000       0.88223190
     6  F          0.15998000       0.87468000       0.11776810
     7  F          0.08452000       0.26572000       0.12302000
     8  F          0.91548000       0.73428000       0.87698000
     9  F          0.86582000      -0.01518000       0.28522000
    10  F          0.13418000       0.01518000       0.71478000
    11  F          0.62423000       0.84362000       0.04472000
    12  F          0.37577000       0.15638000       0.95528000
    13  C          0.72263000      -0.01897000       0.95613000
    14  C          0.27737000       0.01897000       0.04387000
    15  C          0.84424000       0.08913000       0.98133000
    16  C          0.15576000       0.91087000       0.01867000
    17  C          0.97103000       0.16213000       0.10573000
    18  C          0.02897000       0.83787000       0.89427000
    19  C         -0.01757000       0.13113000       0.21243000
    20  C          0.01757000       0.86887000       0.78757000
    21  C          0.86284000       0.02233000       0.18783000
    22  C          0.13716000       0.97767000       0.81217000
    23  C          0.73644000       0.94843000       0.06243000
    24  C          0.26356000       0.05157000       0.93757000
    25  P          0.20093900       0.72523800       0.41748700
    26  P          0.79906100       0.27476200       0.58251300
    27  O          0.24053000       0.71393000       0.54682000
    28  O          0.75947000       0.28607000       0.45318000
    29  C          0.17304000       0.88833000       0.42714000
    30  C          0.82696000       0.11167000       0.57286000
    31  H          0.09050000       0.90480000       0.45810000
    32  H          0.90950000       0.09520000       0.54190000
    33  H          0.14100000       0.88650000       0.33790000
    34  H          0.85900000       0.11350000       0.66210000
    35  H          0.27230000       0.96260000       0.49060000
    36  H          0.72770000       0.03740000       0.50940000
    37  C          0.35093000       0.69903000       0.35663000
    38  C          0.64907000       0.30097000       0.64337000
    39  C          0.42504000       0.79333000       0.32423000
    40  C          0.57496000       0.20667000       0.67577000
    41  H          0.39770000       0.87660000       0.33470000
    42  H          0.60230000       0.12340000       0.66530000
    43  C          0.53824000       0.76643000       0.27663000
    44  C          0.46176000       0.23357000       0.72337000
    45  H          0.58770000       0.83100000       0.25440000
    46  H          0.41230000       0.16900000       0.74560000
    47  C          0.57894000       0.64614000       0.26154000
    48  C          0.42106000       0.35386000       0.73846000
    49  H          0.65660000       0.62800000       0.22910000
    50  H          0.34340000       0.37200000       0.77090000
    51  C          0.50674000       0.55144000       0.29344000
    52  C          0.49326000       0.44856000       0.70656000
    53  H          0.53480000       0.46840000       0.28270000
    54  H          0.46520000       0.53160000       0.71730000
    55  C          0.39284000       0.57783000       0.34134000
    56  C          0.60716000       0.42217000       0.65866000
    57  H          0.34370000       0.51290000       0.36350000
    58  H          0.65630000       0.48710000       0.63650000
    59  C          0.02033000       0.59543000       0.28513000
    60  C         -0.02033000       0.40457000       0.71487000
    61  C          0.95846000       0.58713000       0.15553000
    62  C          0.04154000       0.41287000       0.84447000
    63  H          0.01240000       0.65120000       0.13530000
    64  H         -0.01240000       0.34880000       0.86470000
    65  C          0.81826000       0.48544000       0.05583000
    66  C          0.18174000       0.51456000       0.94417000
    67  H          0.77530000       0.48090000       0.96810000
    68  H          0.22470000       0.51910000       0.03190000
    69  C          0.74176000       0.39084000       0.08544000
    70  C          0.25824000       0.60916000       0.91456000
    71  H          0.64690000       0.32060000       0.01710000
    72  H          0.35310000       0.67940000       0.98290000
    73  C          0.80256000       0.39773000       0.21394000
    74  C          0.19744000       0.60227000       0.78606000
    75  H          0.74930000       0.33290000       0.23370000
    76  H          0.25070000       0.66710000       0.76630000
    77  C          0.94177000       0.50003000       0.31303000
    78  C          0.05823000       0.49997000       0.68697000
    79  H         -0.01620000       0.50480000       0.40090000
    80  H          0.01620000       0.49520000       0.59910000
