data_LICBIK02
_symmetry_space_group_name_H-M    'P1'
_symmetry_Int_Tables_number       1
loop_
_symmetry_equiv_pos_site_id
_symmetry_equiv_pos_as_xyz
1 x,y,z
_cell_length_a                   11.52734
_cell_length_b                   5.8843118
_cell_length_c                   23.58907
_cell_angle_alpha                90.0
_cell_angle_beta                 90.6283
_cell_angle_gamma                90.0
loop_
_atom_site_label
_atom_site_type_symbol
_atom_site_fract_x
_atom_site_fract_y
_atom_site_fract_z
     1  I          0.80669200       0.35904200       0.39003200
     2  I          0.69330800       0.85904200       0.10996800
     3  I          0.19330800       0.64095800       0.60996800
     4  I          0.30669200       0.14095800       0.89003200
     5  F          0.82969100       0.79402000       0.46892500
     6  F          0.67030900       0.29402000       0.03107500
     7  F          0.17030900       0.20598000       0.53107500
     8  F          0.32969100       0.70598000       0.96892500
     9  C          0.91329170       0.64523000       0.48379800
    10  C          0.58670830       0.14523000       0.01620200
    11  C          0.08670830       0.35477000       0.51620200
    12  C          0.41329170       0.85477000       0.98379800
    13  C          0.92474170       0.44273000       0.45462800
    14  C          0.57525830       0.94273000       0.04537200
    15  C          0.07525830       0.55727000       0.54537200
    16  C          0.42474170       0.05727000       0.95462800
    17  F          0.96976110       0.89920190       0.55545500
    18  F          0.53023890       0.39920190       0.94454500
    19  F          0.03023890       0.10079810       0.44454500
    20  F          0.46976110       0.60079810       0.05545500
    21  C          0.98626180       0.70043000       0.52833800
    22  C          0.51373820       0.20043000       0.97166200
    23  C          0.01373820       0.29957000       0.47166200
    24  C          0.48626180       0.79957000       0.02833800
    25  P          0.57529400       0.05867800       0.30504200
    26  P          0.92470600       0.55867800       0.19495800
    27  P          0.42470600       0.94132200       0.69495800
    28  P          0.07529400       0.44132200       0.80504200
    29  C          0.49610170      -0.02353000       0.36724800
    30  C          0.00389830       0.47647000       0.13275200
    31  C          0.50389830       0.02353000       0.63275200
    32  C         -0.00389830       0.52353000       0.86724800
    33  O          0.62532120       0.29202000       0.31090600
    34  O          0.87467880       0.79202000       0.18909400
    35  O          0.37467880       0.70798000       0.68909400
    36  O          0.12532120       0.20798000       0.81090600
    37  C          0.50462000       0.76496000       0.39304900
    38  C         -0.00462000       0.26496000       0.10695100
    39  C          0.49538000       0.23504000       0.60695100
    40  C          0.00462000       0.73504000       0.89304900
    41  H          0.55404100       0.65175900       0.37782000
    42  H          0.94595900       0.15175900       0.12218000
    43  H          0.44595900       0.34824100       0.62218000
    44  H          0.05404100       0.84824100       0.87782000
    45  C          0.42312000       0.13874000       0.39031100
    46  C          0.07688000       0.63874000       0.10968900
    47  C          0.57688000       0.86126000       0.60968900
    48  C          0.92312000       0.36126000       0.89031100
    49  H          0.41684400       0.28404300       0.37303800
    50  H          0.08315600       0.78404300       0.12696200
    51  H          0.58315600       0.71595700       0.62696200
    52  H          0.91684400       0.21595700       0.87303800
    53  C          0.39992000       0.85906000       0.23937100
    54  C          0.10008000       0.35906000       0.26062900
    55  C          0.60008000       0.14094000       0.76062900
    56  C          0.89992000       0.64094000       0.73937100
    57  H          0.40217600       0.73717400       0.26574900
    58  H          0.09782400       0.23717400       0.23425100
    59  H          0.59782400       0.26282600       0.73425100
    60  H          0.90217600       0.76282600       0.76574900
    61  C          0.47287170       0.04503000       0.24714800
    62  C          0.02712830       0.54503000       0.25285200
    63  C          0.52712830       0.95497000       0.75285200
    64  C          0.97287170       0.45497000       0.74714800
    65  C          0.31972000       0.02914000       0.15541100
    66  C          0.18028000       0.52914000       0.34458900
    67  C          0.68028000       0.97086000       0.84458900
    68  C          0.81972000       0.47086000       0.65541100
    69  H          0.26741400       0.02334600       0.12404300
    70  H          0.23258600       0.52334600       0.37595700
    71  H          0.73258600      -0.02334600       0.87595700
    72  H          0.76741400       0.47665400       0.62404300
    73  C          0.36832000       0.88136000       0.46360100
    74  C          0.13168000       0.38136000       0.03639900
    75  C          0.63168000       0.11864000       0.53639900
    76  C          0.86832000       0.61864000       0.96360100
    77  H          0.32475700       0.84858400       0.49656100
    78  H          0.17524300       0.34858400       0.00343900
    79  H          0.67524300       0.15141600       0.50343900
    80  H          0.82475700       0.65141600      -0.00343900
    81  C          0.46759180       0.22424000       0.20831800
    82  C          0.03240820       0.72424000       0.29168200
    83  C          0.53240820       0.77576000       0.79168200
    84  C          0.96759180       0.27576000       0.70831800
    85  H          0.51668000       0.35256000       0.21319500
    86  H          0.98332000       0.85256000       0.28680500
    87  H          0.48332000       0.64744000       0.78680500
    88  H          0.01668000       0.14744000       0.71319500
    89  C          0.44032000       0.71976000       0.44121100
    90  C          0.05968000       0.21976000       0.05878900
    91  C          0.55968000       0.28024000       0.55878900
    92  C          0.94032000       0.78024000       0.94121100
    93  H          0.44629500       0.57509200       0.45887700
    94  H          0.05370500       0.07509200       0.04112300
    95  H          0.55370500       0.42490800       0.54112300
    96  H          0.94629500       0.92490800       0.95887700
    97  C          0.68098190       0.84317000       0.29254900
    98  C          0.81901810       0.34317000       0.20745100
    99  C          0.31901810       0.15683000       0.70745100
   100  C          0.18098190       0.65683000       0.79254900
   101  H          0.73616200       0.83808000       0.32441200
   102  H          0.76383800       0.33808000       0.17558800
   103  H          0.26383800       0.16192000       0.67558800
   104  H          0.23616200       0.66192000       0.82441200
   105  H          0.72254000       0.87753300       0.25754600
   106  H          0.77746000       0.37753300       0.24245400
   107  H          0.27746000       0.12246700       0.74245400
   108  H          0.22254000       0.62246700       0.75754600
   109  H          0.64225400       0.69557800       0.28879100
   110  H          0.85774600       0.19557800       0.21120900
   111  H          0.35774600       0.30442200       0.71120900
   112  H          0.14225400       0.80442200       0.78879100
   113  C          0.32422000       0.85016000       0.19371100
   114  C          0.17578000       0.35016000       0.30628900
   115  C          0.67578000       0.14984000       0.80628900
   116  C          0.82422000       0.64984000       0.69371100
   117  H          0.27524700       0.72186600       0.18850000
   118  H          0.22475300       0.22186600       0.31150000
   119  H          0.72475300       0.27813400       0.81150000
   120  H          0.77524700       0.77813400       0.68850000
   121  C          0.39112000       0.21514000       0.16277900
   122  C          0.10888000       0.71514000       0.33722100
   123  C          0.60888000       0.78486000       0.83722100
   124  C          0.89112000       0.28486000       0.66277900
   125  H          0.38767100       0.33739000       0.13650500
   126  H          0.11232900       0.83739000       0.36349500
   127  H          0.61232900       0.66261000       0.86349500
   128  H          0.88767100       0.16261000       0.63650500
   129  C          0.35942000       0.09084000       0.43824100
   130  C          0.14058000       0.59084000       0.06175900
   131  C          0.64058000       0.90916000       0.56175900
   132  C          0.85942000       0.40916000       0.93824100
   133  H          0.30944600       0.20289800       0.45360500
   134  H          0.19055400       0.70289800       0.04639500
   135  H          0.69055400       0.79710200       0.54639500
   136  H          0.80944600       0.29710200       0.95360500
