data_LIDVAW
_symmetry_space_group_name_H-M    'P1'
_symmetry_Int_Tables_number       1
loop_
_symmetry_equiv_pos_site_id
_symmetry_equiv_pos_as_xyz
1 x,y,z
_cell_length_a                   8.931714
_cell_length_b                   5.11148
_cell_length_c                   31.7305
_cell_angle_alpha                90.0
_cell_angle_beta                 95.5343
_cell_angle_gamma                90.0
loop_
_atom_site_label
_atom_site_type_symbol
_atom_site_fract_x
_atom_site_fract_y
_atom_site_fract_z
     1  S          0.10256120       0.59292000       0.14980300
     2  S          0.89743880       0.09292000       0.35019700
     3  S          0.89743880       0.40708000       0.85019700
     4  S          0.10256120       0.90708000       0.64980300
     5  O          0.95437000       0.69937000       0.14578900
     6  O          0.04563000       0.19937000       0.35421100
     7  O          0.04563000       0.30063000       0.85421100
     8  O          0.95437000       0.80063000       0.64578900
     9  O          0.12684000       0.32486000       0.14003900
    10  O          0.87316000       0.82486000       0.35996100
    11  O          0.87316000       0.67514000       0.85996100
    12  O          0.12684000       0.17514000       0.64003900
    13  O          0.36863000       0.07446000       0.07250100
    14  O          0.63137000       0.57446000       0.42749900
    15  O          0.63137000       0.92554000       0.92749900
    16  O          0.36863000       0.42554000       0.57250100
    17  O          0.55883000       0.78957000       0.07906110
    18  O          0.44117000       0.28957000       0.42093890
    19  O          0.44117000       0.21043000       0.92093890
    20  O          0.55883000       0.71043000       0.57906110
    21  H          0.60760000       0.90890000       0.06980000
    22  H          0.39240000       0.40890000       0.43020000
    23  H          0.39240000       0.09110000       0.93020000
    24  H          0.60760000       0.59110000       0.56980000
    25  N          0.19894000       0.76517000       0.11899110
    26  N          0.80106000       0.26517000       0.38100890
    27  N          0.80106000       0.23483000       0.88100890
    28  N          0.19894000       0.73483000       0.61899110
    29  H          0.15890000       0.89640000       0.10520000
    30  H          0.84110000       0.39640000       0.39480000
    31  H          0.84110000       0.10360000       0.89480000
    32  H          0.15890000       0.60360000       0.60520000
    33  C          0.34097000       0.72351300       0.33381160
    34  C          0.65903000       0.22351300       0.16618840
    35  C          0.65903000       0.27648700       0.66618840
    36  C          0.34097000       0.77648700       0.83381160
    37  H          0.29420000       0.58880000       0.34910000
    38  H          0.70580000       0.08880000       0.15090000
    39  H          0.70580000       0.41120000       0.65090000
    40  H          0.29420000       0.91120000       0.84910000
    41  H          0.31320000       0.89180000       0.34400000
    42  H          0.68680000       0.39180000       0.15600000
    43  H          0.68680000       0.10820000       0.65600000
    44  H          0.31320000       0.60820000       0.84400000
    45  H          0.44820000       0.70400000       0.33800000
    46  H          0.55180000       0.20400000       0.16200000
    47  H          0.55180000       0.29600000       0.66200000
    48  H          0.44820000       0.79600000       0.83800000
    49  C          0.28915000       0.70151000       0.28713130
    50  C          0.71085000       0.20151000       0.21286870
    51  C          0.71085000       0.29849000       0.71286870
    52  C          0.28915000       0.79849000       0.78713130
    53  C          0.34225000       0.50421000       0.26268150
    54  C          0.65775000       0.00421000       0.23731850
    55  C          0.65775000       0.49579000       0.73731850
    56  C          0.34225000      -0.00421000       0.76268150
    57  H          0.41530000       0.39030000       0.27480000
    58  H          0.58470000       0.89030000       0.22520000
    59  H          0.58470000       0.60970000       0.72520000
    60  H          0.41530000       0.10970000       0.77480000
    61  C          0.28875000       0.47349000       0.22079140
    62  C          0.71125000      -0.02651000       0.27920860
    63  C          0.71125000       0.52651000       0.77920860
    64  C          0.28875000       0.02651000       0.72079140
    65  H          0.32550000       0.33970000       0.20480000
    66  H          0.67450000       0.83970000       0.29520000
    67  H          0.67450000       0.66030000       0.79520000
    68  H          0.32550000       0.16030000       0.70480000
    69  C          0.18044000       0.64158000       0.20264120
    70  C          0.81956000       0.14158000       0.29735880
    71  C          0.81956000       0.35842000       0.79735880
    72  C          0.18044000       0.85842000       0.70264120
    73  C          0.12875000       0.84439000       0.22624140
    74  C          0.87125000       0.34439000       0.27375860
    75  C          0.87125000       0.15561000       0.77375860
    76  C          0.12875000       0.65561000       0.72624140
    77  H          0.05770000       0.96140000       0.21390000
    78  H          0.94230000       0.46140000       0.28610000
    79  H          0.94230000       0.03860000       0.78610000
    80  H          0.05770000       0.53860000       0.71390000
    81  C          0.18335000       0.87111000       0.26800140
    82  C          0.81665000       0.37111000       0.23199860
    83  C          0.81665000       0.12889000       0.73199860
    84  C          0.18335000       0.62889000       0.76800140
    85  H          0.14800000       0.00710000       0.28380000
    86  H          0.85200000       0.50710000       0.21620000
    87  H          0.85200000      -0.00710000       0.71620000
    88  H          0.14800000       0.49290000       0.78380000
    89  C          0.35445000       0.69229000       0.11520140
    90  C          0.64555000       0.19229000       0.38479860
    91  C          0.64555000       0.30771000       0.88479860
    92  C          0.35445000       0.80771000       0.61520140
    93  H          0.35790000       0.51510000       0.10440000
    94  H          0.64210000       0.01510000       0.39560000
    95  H          0.64210000       0.48490000       0.89560000
    96  H          0.35790000      -0.01510000       0.60440000
    97  H          0.41030000       0.69600000       0.14300000
    98  H          0.58970000       0.19600000       0.35700000
    99  H          0.58970000       0.30400000       0.85700000
   100  H          0.41030000       0.80400000       0.64300000
   101  C          0.42695000       0.87528000       0.08605130
   102  C          0.57305000       0.37528000       0.41394870
   103  C          0.57305000       0.12472000       0.91394870
   104  C          0.42695000       0.62472000       0.58605130
   105  N          0.73174000       0.11208000       0.04617110
   106  N          0.26826000       0.61208000       0.45382890
   107  N          0.26826000       0.88792000       0.95382890
   108  N          0.73174000       0.38792000       0.54617110
   109  C          0.87815000       0.08201100       0.05680150
   110  C          0.12185000       0.58201100       0.44319850
   111  C          0.12185000       0.91798900       0.94319850
   112  C          0.87815000       0.41798900       0.55680150
   113  H          0.90910000       0.95530000       0.07680000
   114  H          0.09090000       0.45530000       0.42320000
   115  H          0.09090000       0.04470000       0.92320000
   116  H          0.90910000       0.54470000       0.57680000
   117  C         -0.01435000       0.22831100       0.03975140
   118  C          0.01435000       0.72831100       0.46024860
   119  C          0.01435000       0.77168900       0.96024860
   120  C         -0.01435000       0.27168900       0.53975140
   121  H          0.08690000       0.19960000       0.04820000
   122  H          0.91310000       0.69960000       0.45180000
   123  H          0.91310000       0.80040000       0.95180000
   124  H          0.08690000       0.30040000       0.54820000
   125  C          0.94364000       0.41879000       0.01003120
   126  C          0.05636000       0.91879000       0.48996880
   127  C          0.05636000       0.58121000       0.98996880
   128  C          0.94364000       0.08121000       0.51003120
   129  C          0.78975000       0.45241000      -0.00056150
   130  C          0.21025000       0.95241000       0.50056150
   131  C          0.21025000       0.54759000       0.00056150
   132  C          0.78975000       0.04759000       0.49943850
   133  H          0.75500000       0.58020000       0.98000000
   134  H          0.24500000       0.08020000       0.52000000
   135  H          0.24500000       0.41980000       0.02000000
   136  H          0.75500000       0.91980000       0.48000000
   137  C          0.68975000       0.29501000       0.01793160
   138  C          0.31025000       0.79501000       0.48206840
   139  C          0.31025000       0.70499000       0.98206840
   140  C          0.68975000       0.20499000       0.51793160
   141  H          0.58740000       0.31830000       0.01020000
   142  H          0.41260000       0.81830000       0.48980000
   143  H          0.41260000       0.68170000       0.98980000
   144  H          0.58740000       0.18170000       0.51020000
