data_LIFPUO
_symmetry_space_group_name_H-M    'P1'
_symmetry_Int_Tables_number       1
loop_
_symmetry_equiv_pos_site_id
_symmetry_equiv_pos_as_xyz
1 x,y,z
_cell_length_a                   10.371518
_cell_length_b                   18.2353
_cell_length_c                   13.3843
_cell_angle_alpha                90.0
_cell_angle_beta                 112.7362
_cell_angle_gamma                90.0
loop_
_atom_site_label
_atom_site_type_symbol
_atom_site_fract_x
_atom_site_fract_y
_atom_site_fract_z
     1  S          0.83899500       0.07508200       0.94614300
     2  S          0.66100500       0.57508200       0.55385700
     3  S          0.16100500       0.92491800       0.05385700
     4  S          0.33899500       0.42491800       0.44614300
     5  O          0.71270140       0.10463800       0.95149110
     6  O          0.78729860       0.60463800       0.54850890
     7  O          0.28729860       0.89536200       0.04850890
     8  O          0.21270140       0.39536200       0.45149110
     9  O          0.95889140       0.07757700       0.05014100
    10  O          0.54110860       0.57757700       0.44985900
    11  O          0.04110860       0.92242300       0.94985900
    12  O          0.45889140       0.42242300       0.55014100
    13  O          0.80462140       0.99107300       0.92137110
    14  O          0.69537860       0.49107300       0.57862890
    15  O          0.19537860       0.00892700       0.07862890
    16  O          0.30462140       0.50892700       0.42137110
    17  H          0.88400000       0.97060000       0.93230000
    18  H          0.61600000       0.47060000       0.56770000
    19  H          0.11600000       0.02940000       0.06770000
    20  H          0.38400000       0.52940000       0.43230000
    21  O          0.87290140       0.10467700       0.85958100
    22  O          0.62709860       0.60467700       0.64041900
    23  O          0.12709860       0.89532300       0.14041900
    24  O          0.37290140       0.39532300       0.35958100
    25  O          0.37796130       0.96775400       0.59047100
    26  O          0.12203870       0.46775400       0.90952900
    27  O          0.62203870       0.03224600       0.40952900
    28  O          0.87796130       0.53224600       0.09047100
    29  O          0.32861130       0.00754700       0.77200900
    30  O          0.17138870       0.50754700       0.72799100
    31  O          0.67138870      -0.00754700       0.22799100
    32  O          0.82861130       0.49245300       0.27200900
    33  O          0.21017130       0.14510700       0.78540900
    34  O          0.28982870       0.64510700       0.71459100
    35  O          0.78982870       0.85489300       0.21459100
    36  O          0.71017130       0.35489300       0.28540900
    37  O          0.03713130       0.20848600       0.58133900
    38  O          0.46286870       0.70848600       0.91866100
    39  O          0.96286870       0.79151400       0.41866100
    40  O          0.53713130       0.29151400       0.08133900
    41  O          0.04660130       0.16179700       0.38403100
    42  O          0.45339870       0.66179700       0.11596900
    43  O          0.95339870       0.83820300       0.61596900
    44  O          0.54660130       0.33820300       0.88403100
    45  O          0.17180130       0.02330700       0.39790900
    46  O          0.32819870       0.52330700       0.10209100
    47  O          0.82819870       0.97669300       0.60209100
    48  O          0.67180130       0.47669300       0.89790900
    49  C          0.28612000       0.97916890       0.39759150
    50  C          0.21388000       0.47916890       0.10240850
    51  C          0.71388000       0.02083110       0.60240850
    52  C          0.78612000       0.52083110       0.89759150
    53  H          0.36610000       0.01100000       0.40340000
    54  H          0.13390000       0.51100000       0.09660000
    55  H          0.63390000       0.98900000       0.59660000
    56  H          0.86610000       0.48900000       0.90340000
    57  H          0.25760000       0.95140000       0.32890000
    58  H          0.24240000       0.45140000       0.17110000
    59  H          0.74240000       0.04860000       0.67110000
    60  H          0.75760000       0.54860000       0.82890000
    61  C          0.32832000       0.92727900       0.49117160
    62  C          0.17168000       0.42727900       0.00882840
    63  C          0.67168000       0.07272100       0.50882840
    64  C          0.82832000       0.57272100      -0.00882840
    65  H          0.24720000       0.89680000       0.48670000
    66  H          0.25280000       0.39680000       0.01330000
    67  H          0.75280000       0.10320000       0.51330000
    68  H          0.74720000       0.60320000       0.98670000
    69  H          0.40290000       0.89430000       0.48880000
    70  H          0.09710000       0.39430000       0.01120000
    71  H          0.59710000       0.10570000       0.51120000
    72  H          0.90290000       0.60570000      -0.01120000
    73  C          0.41552000       0.92019900       0.68204150
    74  C          0.08448000       0.42019900       0.81795850
    75  C          0.58448000       0.07980100       0.31795850
    76  C          0.91552000       0.57980100       0.18204150
    77  H          0.49780000       0.89050000       0.68750000
    78  H          0.00220000       0.39050000       0.81250000
    79  H          0.50220000       0.10950000       0.31250000
    80  H         -0.00220000       0.60950000       0.18750000
    81  H          0.33720000       0.88640000       0.67320000
    82  H          0.16280000       0.38640000       0.82680000
    83  H          0.66280000       0.11360000       0.32680000
    84  H          0.83720000       0.61360000       0.17320000
    85  C          0.44904190       0.96469900       0.78324150
    86  C          0.05095810       0.46469900       0.71675850
    87  C          0.55095810       0.03530100       0.21675850
    88  C          0.94904190       0.53530100       0.28324150
    89  H          0.47350000       0.93190000       0.84690000
    90  H          0.02650000       0.43190000       0.65310000
    91  H          0.52650000       0.06810000       0.15310000
    92  H          0.97350000       0.56810000       0.34690000
    93  H          0.52980000      -0.00280000       0.79400000
    94  H          0.97020000       0.49720000       0.70600000
    95  H          0.47020000       0.00280000       0.20600000
    96  H          0.02980000       0.50280000       0.29400000
    97  C          0.33792000       0.03879100       0.87314140
    98  C          0.16208000       0.53879100       0.62685860
    99  C          0.66208000       0.96120900       0.12685860
   100  C          0.83792000       0.46120900       0.37314140
   101  H          0.42300000       0.06940000       0.90400000
   102  H          0.07700000       0.56940000       0.59600000
   103  H          0.57700000       0.93060000       0.09600000
   104  H          0.92300000       0.43060000       0.40400000
   105  H          0.34380000      -0.00080000       0.92540000
   106  H          0.15620000       0.49920000       0.57460000
   107  H          0.65620000       0.00080000       0.07460000
   108  H          0.84380000       0.50080000       0.42540000
   109  C          0.21122000       0.08461100       0.85388150
   110  C          0.28878000       0.58461100       0.64611850
   111  C          0.78878000       0.91538900       0.14611850
   112  C          0.71122000       0.41538900       0.35388150
   113  H          0.12590000       0.05470000       0.81900000
   114  H          0.37410000       0.55470000       0.68100000
   115  H          0.87410000       0.94530000       0.18100000
   116  H          0.62590000       0.44530000       0.31900000
   117  H          0.21220000       0.10300000       0.92380000
   118  H          0.28780000       0.60300000       0.57620000
   119  H          0.78780000       0.89700000       0.07620000
   120  H          0.71220000       0.39700000       0.42380000
   121  C          0.09752000       0.19448110       0.77113150
   122  C          0.40248000       0.69448110       0.72886850
   123  C          0.90248000       0.80551890       0.22886850
   124  C          0.59752000       0.30551890       0.27113150
   125  H          0.11570000       0.22170000       0.83920000
   126  H          0.38430000       0.72170000       0.66080000
   127  H          0.88430000       0.77830000       0.16080000
   128  H          0.61570000       0.27830000       0.33920000
   129  H          0.00950000       0.16660000       0.75290000
   130  H          0.49050000       0.66660000       0.74710000
   131  H         -0.00950000       0.83340000       0.24710000
   132  H          0.50950000       0.33340000       0.25290000
   133  C          0.08372000       0.24727100       0.68181140
   134  C          0.41628000       0.74727100       0.81818860
   135  C          0.91628000       0.75272900       0.31818860
   136  C          0.58372000       0.25272900       0.18181140
   137  H          0.01560000       0.28610000       0.67880000
   138  H          0.48440000       0.78610000       0.82120000
   139  H         -0.01560000       0.71390000       0.32120000
   140  H          0.51560000       0.21390000       0.17880000
   141  H          0.17500000       0.27070000       0.69550000
   142  H          0.32500000       0.77070000       0.80450000
   143  H          0.82500000       0.72930000       0.30450000
   144  H          0.67500000       0.22930000       0.19550000
   145  C          0.00557190       0.25664100       0.49015140
   146  C          0.49442810       0.75664100       0.00984860
   147  C         -0.00557190       0.74335900       0.50984860
   148  C          0.50557190       0.24335900      -0.00984860
   149  H          0.09180000       0.28120000       0.49240000
   150  H          0.40820000       0.78120000       0.00760000
   151  H          0.90820000       0.71880000       0.50760000
   152  H          0.59180000       0.21880000      -0.00760000
   153  H          0.93820000       0.29470000       0.49150000
   154  H          0.56180000       0.79470000       0.00850000
   155  H          0.06180000       0.70530000       0.50850000
   156  H          0.43820000       0.20530000      -0.00850000
   157  C          0.94401810       0.21144100       0.38980150
   158  C          0.55598190       0.71144100       0.11019850
   159  C          0.05598190       0.78855900       0.61019850
   160  C          0.44401810       0.28855900       0.88980150
   161  H          0.86240000       0.18380000       0.39090000
   162  H          0.63760000       0.68380000       0.10910000
   163  H          0.13760000       0.81620000       0.60910000
   164  H          0.36240000       0.31620000       0.89090000
   165  H          0.91180000       0.24370000       0.32530000
   166  H          0.58820000       0.74370000       0.17470000
   167  H          0.08820000       0.75630000       0.67470000
   168  H          0.41180000       0.25630000       0.82530000
   169  C         -0.00992000       0.10793110       0.30061140
   170  C          0.50992000       0.60793110       0.19938860
   171  C          0.00992000       0.89206890       0.69938860
   172  C          0.49008000       0.39206890       0.80061140
   173  H          0.94120000       0.13230000       0.22980000
   174  H          0.55880000       0.63230000       0.27020000
   175  H          0.05880000       0.86770000       0.77020000
   176  H          0.44120000       0.36770000       0.72980000
   177  H          0.92210000       0.07660000       0.31610000
   178  H          0.57790000       0.57660000       0.18390000
   179  H          0.07790000       0.92340000       0.68390000
   180  H          0.42210000       0.42340000       0.81610000
   181  C          0.10792000       0.06230100       0.29711140
   182  C          0.39208000       0.56230100       0.20288860
   183  C          0.89208000       0.93769900       0.70288860
   184  C          0.60792000       0.43769900       0.79711140
   185  H          0.07240000       0.02700000       0.23630000
   186  H          0.42760000       0.52700000       0.26370000
   187  H          0.92760000       0.97300000       0.76370000
   188  H          0.57240000       0.47300000       0.73630000
   189  H          0.17810000       0.09410000       0.28530000
   190  H          0.32190000       0.59410000       0.21470000
   191  H          0.82190000       0.90590000       0.71470000
   192  H          0.67810000       0.40590000       0.78530000
   193  O          0.23573140       0.19324800       0.06593120
   194  O          0.26426860       0.69324800       0.43406880
   195  O          0.76426860       0.80675200       0.93406880
   196  O          0.73573140       0.30675200       0.56593120
   197  O          0.30248140       0.20365800       0.23968110
   198  O          0.19751860       0.70365800       0.26031890
   199  O          0.69751860       0.79634200       0.76031890
   200  O          0.80248140       0.29634200       0.73968110
   201  C          0.86976820       0.34620900       0.10331140
   202  C          0.63023180       0.84620900       0.39668860
   203  C          0.13023180       0.65379100       0.89668860
   204  C          0.36976820       0.15379100       0.60331140
   205  C          0.86742820       0.30114900       0.01898140
   206  C          0.63257180       0.80114900       0.48101860
   207  C          0.13257180       0.69885100       0.98101860
   208  C          0.36742820       0.19885100       0.51898140
   209  H          0.78810000       0.30040000       0.95250000
   210  H          0.71190000       0.80040000       0.54750000
   211  H          0.21190000       0.69960000       0.04750000
   212  H          0.28810000       0.19960000       0.45250000
   213  C         -0.01771180       0.25714900       0.03281140
   214  C          0.51771180       0.75714900       0.46718860
   215  C          0.01771180       0.74285100       0.96718860
   216  C          0.48228820       0.24285100       0.53281140
   217  H         -0.01650000       0.22600000       0.97630000
   218  H          0.51650000       0.72600000       0.52370000
   219  H          0.01650000       0.77400000       0.02370000
   220  H          0.48350000       0.27400000       0.47630000
   221  C          0.09517180       0.25991900       0.13141140
   222  C          0.40482820       0.75991900       0.36858860
   223  C          0.90482820       0.74008100       0.86858860
   224  C          0.59517180       0.24008100       0.63141140
   225  C          0.09859190       0.30414900       0.21629140
   226  C          0.40140810       0.80414900       0.28370860
   227  C          0.90140810       0.69585100       0.78370860
   228  C          0.59859190       0.19585100       0.71629140
   229  H          0.17760000       0.30440000       0.28300000
   230  H          0.32240000       0.80440000       0.21700000
   231  H          0.82240000       0.69560000       0.71700000
   232  H          0.67760000       0.19560000       0.78300000
   233  C         -0.01611190       0.34794900       0.20143140
   234  C          0.51611190       0.84794900       0.29856860
   235  C          0.01611190       0.65205100       0.79856860
   236  C          0.48388810       0.15205100       0.70143140
   237  H         -0.01680000       0.37910000       0.25810000
   238  H          0.51680000       0.87910000       0.24190000
   239  H          0.01680000       0.62090000       0.74190000
   240  H          0.48320000       0.12090000       0.75810000
   241  N          0.74945860       0.39259700       0.08914110
   242  N          0.75054140       0.89259700       0.41085890
   243  N          0.25054140       0.60740300       0.91085890
   244  N          0.24945860       0.10740300       0.58914110
   245  H          0.76590000       0.42620000       0.14090000
   246  H          0.73410000       0.92620000       0.35910000
   247  H          0.23410000       0.57380000       0.85910000
   248  H          0.26590000       0.07380000       0.64090000
   249  H          0.67430000       0.36570000       0.08950000
   250  H          0.82570000       0.86570000       0.41050000
   251  H          0.32570000       0.63430000       0.91050000
   252  H          0.17430000       0.13430000       0.58950000
   253  H          0.71890000       0.41850000       0.02900000
   254  H          0.78110000       0.91850000       0.47100000
   255  H          0.28110000       0.58150000       0.97100000
   256  H          0.21890000       0.08150000       0.52900000
   257  N          0.21941160       0.21547800       0.14661130
   258  N          0.28058840       0.71547800       0.35338870
   259  N          0.78058840       0.78452200       0.85338870
   260  N          0.71941160       0.28452200       0.64661130
