data_LIGNAT
_symmetry_space_group_name_H-M    'P1'
_symmetry_Int_Tables_number       1
loop_
_symmetry_equiv_pos_site_id
_symmetry_equiv_pos_as_xyz
1 x,y,z
_cell_length_a                   8.6653417
_cell_length_b                   8.2669413
_cell_length_c                   19.76443
_cell_angle_alpha                90.0
_cell_angle_beta                 91.473215
_cell_angle_gamma                90.0
loop_
_atom_site_label
_atom_site_type_symbol
_atom_site_fract_x
_atom_site_fract_y
_atom_site_fract_z
     1  S          0.33062500       0.17057500       0.23686200
     2  S          0.66937500       0.67057500       0.26313800
     3  S          0.66937500       0.82942500       0.76313800
     4  S          0.33062500       0.32942500       0.73686200
     5  N          0.26944160      -0.01547160       0.33871600
     6  N          0.73055840       0.48452840       0.16128400
     7  N          0.73055840       0.01547160       0.66128400
     8  N          0.26944160       0.51547160       0.83871600
     9  C          0.42128190       0.03552180       0.34853700
    10  C          0.57871810       0.53552180       0.15146300
    11  C          0.57871810       0.96447820       0.65146300
    12  C          0.42128190       0.46447820       0.84853700
    13  C          0.20904190       0.04355190       0.28252700
    14  C          0.79095810       0.54355190       0.21747300
    15  C          0.79095810       0.95644810       0.71747300
    16  C          0.20904190       0.45644810       0.78252700
    17  C          0.62562000       0.19572000       0.30007100
    18  C          0.37438000       0.69572000       0.19992900
    19  C          0.37438000       0.80428000       0.69992900
    20  C          0.62562000       0.30428000       0.80007100
    21  H          0.66160000       0.26130000       0.26570000
    22  H          0.33840000       0.76130000       0.23430000
    23  H          0.33840000       0.73870000       0.73430000
    24  H          0.66160000       0.23870000       0.76570000
    25  N          0.06592000       0.01052000       0.26009900
    26  N          0.93408000       0.51052000       0.23990100
    27  N          0.93408000      -0.01052000       0.73990100
    28  N          0.06592000       0.48948000       0.76009900
    29  C          0.47562000       0.13707190       0.29777800
    30  C          0.52438000       0.63707190       0.20222200
    31  C          0.52438000       0.86292810       0.70222200
    32  C          0.47562000       0.36292810       0.79777800
    33  C          0.66712000       0.05543000       0.40597100
    34  C          0.33288000       0.55543000       0.09402900
    35  C          0.33288000       0.94457000       0.59402900
    36  C          0.66712000       0.44457000       0.90597100
    37  H          0.73240000       0.02950000       0.44240000
    38  H          0.26760000       0.52950000       0.05760000
    39  H          0.26760000       0.97050000       0.55760000
    40  H          0.73240000       0.47050000       0.94240000
    41  C          0.72012000       0.15473000       0.35441110
    42  C          0.27988000       0.65473000       0.14558890
    43  C          0.27988000       0.84527000       0.64558890
    44  C          0.72012000       0.34527000       0.85441110
    45  H          0.82070000       0.19370000       0.35680000
    46  H          0.17930000       0.69370000       0.14320000
    47  H          0.17930000       0.80630000       0.64320000
    48  H          0.82070000       0.30630000       0.85680000
    49  C          0.51832000      -0.00492000       0.40327800
    50  C          0.48168000       0.49508000       0.09672200
    51  C          0.48168000       0.00492000       0.59672200
    52  C          0.51832000       0.50492000       0.90327800
    53  H          0.48340000       0.92840000       0.43750000
    54  H          0.51660000       0.42840000       0.06250000
    55  H          0.51660000       0.07160000       0.56250000
    56  H          0.48340000       0.57160000       0.93750000
    57  H          0.01030000       0.94770000       0.28391300
    58  H         -0.01030000       0.44770000       0.21608700
    59  H         -0.01030000       0.05230000       0.71608700
    60  H          0.01030000       0.55230000       0.78391300
    61  H          0.03330000       0.05730000       0.22631200
    62  H          0.96670000       0.55730000       0.27368800
    63  H          0.96670000       0.94270000       0.77368800
    64  H          0.03330000       0.44270000       0.72631200
    65  O          0.09643150       0.86156150       0.43409600
    66  O          0.90356850       0.36156150       0.06590400
    67  O          0.90356850       0.13843850       0.56590400
    68  O          0.09643150       0.63843850       0.93409600
    69  O          0.97609160       0.72709170       0.35130500
    70  O          0.02390840       0.22709170       0.14869500
    71  O          0.02390840       0.27290830       0.64869500
    72  O          0.97609160       0.77290830       0.85130500
    73  C         -0.00657820       0.75805180       0.41168700
    74  C          0.00657820       0.25805180       0.08831300
    75  C          0.00657820       0.24194820       0.58831300
    76  C         -0.00657820       0.74194820       0.91168700
    77  C          0.89958170       0.68310170       0.46489700
    78  C          0.10041830       0.18310170       0.03510300
    79  C          0.10041830       0.31689830       0.53510300
    80  C          0.89958170       0.81689830       0.96489700
    81  C          0.91552000       0.73162000       0.53196800
    82  C          0.08448000       0.23162000       0.96803200
    83  C          0.08448000       0.26838000       0.46803200
    84  C          0.91552000       0.76838000       0.03196800
    85  H         -0.01560000       0.81370000       0.54380000
    86  H          0.01560000       0.31370000       0.95620000
    87  H          0.01560000       0.18630000       0.45620000
    88  H         -0.01560000       0.68630000       0.04380000
    89  C          0.82922000       0.65832000       0.58105900
    90  C          0.17078000       0.15832000       0.91894100
    91  C          0.17078000       0.34168000       0.41894100
    92  C          0.82922000       0.84168000       0.08105900
    93  H          0.84000000       0.69260000       0.62570000
    94  H          0.16000000       0.19260000       0.87430000
    95  H          0.16000000       0.30740000       0.37430000
    96  H          0.84000000       0.80740000       0.12570000
    97  C          0.79686190       0.55972000       0.44826800
    98  C          0.20313810       0.05972000       0.05173200
    99  C          0.20313810       0.44028000       0.55173200
   100  C          0.79686190       0.94028000       0.94826800
   101  H          0.78520000       0.52600000       0.40350000
   102  H          0.21480000       0.02600000       0.09650000
   103  H          0.21480000       0.47400000       0.59650000
   104  H          0.78520000       0.97400000       0.90350000
   105  C          0.71192000       0.48692000       0.49807900
   106  C          0.28808000      -0.01308000       0.00192100
   107  C          0.28808000       0.51308000       0.50192100
   108  C          0.71192000       0.01308000      -0.00192100
   109  H          0.64340000       0.40430000       0.48640000
   110  H          0.35660000       0.90430000       0.01360000
   111  H          0.35660000       0.59570000       0.51360000
   112  H          0.64340000       0.09570000       0.98640000
   113  C          0.72691190       0.53482000       0.56514800
   114  C          0.27308810       0.03482000       0.93485200
   115  C          0.27308810       0.46518000       0.43485200
   116  C          0.72691190       0.96518000       0.06514800
   117  C          0.63493000       0.45453000       0.61950110
   118  C          0.36507000       0.95453000       0.88049890
   119  C          0.36507000       0.54547000       0.38049890
   120  C          0.63493000       0.04547000       0.11950110
   121  H          0.70340000       0.41950000       0.65550000
   122  H          0.29660000       0.91950000       0.84450000
   123  H          0.29660000       0.58050000       0.34450000
   124  H          0.70340000       0.08050000       0.15550000
   125  H          0.58100000       0.36280000       0.60070000
   126  H          0.41900000       0.86280000       0.89930000
   127  H          0.41900000       0.63720000       0.39930000
   128  H          0.58100000       0.13720000       0.10070000
   129  H          0.56170000       0.53020000       0.63680000
   130  H          0.43830000       0.03020000       0.86320000
   131  H          0.43830000       0.46980000       0.36320000
   132  H          0.56170000       0.96980000       0.13680000
   133  H          0.15530000       0.90430000       0.39921400
   134  H          0.84470000       0.40430000       0.10078600
   135  H          0.84470000       0.09570000       0.60078600
   136  H          0.15530000       0.59570000       0.89921400
