data_LILMIE
_symmetry_space_group_name_H-M    'P1'
_symmetry_Int_Tables_number       1
loop_
_symmetry_equiv_pos_site_id
_symmetry_equiv_pos_as_xyz
1 x,y,z
_cell_length_a                   7.87139
_cell_length_b                   23.2033
_cell_length_c                   7.81699
_cell_angle_alpha                90.0
_cell_angle_beta                 92.0194
_cell_angle_gamma                90.0
loop_
_atom_site_label
_atom_site_type_symbol
_atom_site_fract_x
_atom_site_fract_y
_atom_site_fract_z
     1  N          0.57552000       0.69233800       0.94838000
     2  N          0.42448000       0.19233800       0.55162000
     3  N          0.42448000       0.30766200       0.05162000
     4  N          0.57552000       0.80766200       0.44838000
     5  O          0.48242000       0.64826700       0.89648000
     6  O          0.51758000       0.14826700       0.60352000
     7  O          0.51758000       0.35173300       0.10352000
     8  O          0.48242000       0.85173300       0.39648000
     9  C          0.73193000       0.68374100       0.01973000
    10  C          0.26807000       0.18374100       0.48027000
    11  C          0.26807000       0.31625900       0.98027000
    12  C          0.73193000       0.81625900       0.51973000
    13  H          0.77340000       0.64550000       0.03290000
    14  H          0.22660000       0.14550000       0.46710000
    15  H          0.22660000       0.35450000       0.96710000
    16  H          0.77340000       0.85450000       0.53290000
    17  C          0.83323000       0.72921100       0.07383000
    18  C          0.16677000       0.22921100       0.42617000
    19  C          0.16677000       0.27078900       0.92617000
    20  C          0.83323000       0.77078900       0.57383000
    21  C          0.77013000       0.78487100       0.05583000
    22  C          0.22987000       0.28487100       0.44417000
    23  C          0.22987000       0.21512900       0.94417000
    24  C          0.77013000       0.71512900       0.55583000
    25  H          0.83660000       0.81700000       0.09270000
    26  H          0.16340000       0.31700000       0.40730000
    27  H          0.16340000       0.18300000       0.90730000
    28  H          0.83660000       0.68300000       0.59270000
    29  C          0.60933000       0.79276100      -0.01643000
    30  C          0.39067000       0.29276100       0.51643000
    31  C          0.39067000       0.20723900       0.01643000
    32  C          0.60933000       0.70723900       0.48357000
    33  H          0.56470000       0.83060000       0.97100000
    34  H          0.43530000       0.33060000       0.52900000
    35  H          0.43530000       0.16940000       0.02900000
    36  H          0.56470000       0.66940000       0.47100000
    37  C          0.51333000       0.74652900       0.92977000
    38  C          0.48667000       0.24652900       0.57023000
    39  C          0.48667000       0.25347100       0.07023000
    40  C          0.51333000       0.75347100       0.42977000
    41  H          0.40310000       0.75240000       0.87940000
    42  H          0.59690000       0.25240000       0.62060000
    43  H          0.59690000       0.24760000       0.12060000
    44  H          0.40310000       0.74760000       0.37940000
    45  C          0.00753000       0.71763130       0.14924000
    46  C         -0.00753000       0.21763130       0.35076000
    47  C         -0.00753000       0.28236870       0.85076000
    48  C          0.00753000       0.78236870       0.64924000
    49  H          0.00120000       0.68720000       0.23570000
    50  H         -0.00120000       0.18720000       0.26430000
    51  H         -0.00120000       0.31280000       0.76430000
    52  H          0.00120000       0.81280000       0.73570000
    53  H          0.05300000       0.75290000       0.20250000
    54  H          0.94700000       0.25290000       0.29750000
    55  H          0.94700000       0.24710000       0.79750000
    56  H          0.05300000       0.74710000       0.70250000
    57  H          0.08220000       0.70520000       0.05860000
    58  H          0.91780000       0.20520000       0.44140000
    59  H          0.91780000       0.29480000       0.94140000
    60  H          0.08220000       0.79480000       0.55860000
    61  C          0.26113000       0.56056900       0.40873000
    62  C          0.73887000       0.06056900       0.09127000
    63  C          0.73887000       0.43943100       0.59127000
    64  C          0.26113000       0.93943100       0.90873000
    65  I          0.35422517       0.59509560       0.18226817
    66  I          0.64577483       0.09509560       0.31773183
    67  I          0.64577483       0.40490440       0.81773183
    68  I          0.35422517       0.90490440       0.68226817
    69  C          0.26242000       0.50135900       0.44463000
    70  C          0.73758000       0.00135900       0.05537000
    71  C          0.73758000       0.49864100       0.55537000
    72  C          0.26242000      -0.00135900       0.94463000
    73  I          0.36162916       0.43953250       0.28071217
    74  I          0.63837084       0.93953250       0.21928783
    75  I          0.63837084       0.56046750       0.71928783
    76  I          0.36162916       0.06046750       0.78071217
    77  C          0.20143000       0.48280110       0.59883000
    78  C          0.79857000       0.98280110       0.90117000
    79  C          0.79857000       0.51719890       0.40117000
    80  C          0.20143000       0.01719890       0.09883000
    81  F          0.19772000       0.42620700       0.63812000
    82  F          0.80228000       0.92620700       0.86188000
    83  F          0.80228000       0.57379300       0.36188000
    84  F          0.19772000       0.07379300       0.13812000
    85  C          0.14053000       0.52083130       0.71813000
    86  C          0.85947000       0.02083130       0.78187000
    87  C          0.85947000       0.47916870       0.28187000
    88  C          0.14053000       0.97916870       0.21813000
    89  F          0.08272000       0.50107900       0.86515190
    90  F          0.91728000       0.00107900       0.63484810
    91  F          0.91728000       0.49892100       0.13484810
    92  F          0.08272000      -0.00107900       0.36515190
    93  C          0.13953000       0.57907120       0.68303000
    94  C          0.86047000       0.07907120       0.81697000
    95  C          0.86047000       0.42092880       0.31697000
    96  C          0.13953000       0.92092880       0.18303000
    97  F          0.07983190       0.61676800       0.79622000
    98  F          0.92016810       0.11676800       0.70378000
    99  F          0.92016810       0.38323200       0.20378000
   100  F          0.07983190       0.88323200       0.29622000
   101  C          0.19963000       0.59796100       0.52893000
   102  C          0.80037000       0.09796100       0.97107000
   103  C          0.80037000       0.40203900       0.47107000
   104  C          0.19963000       0.90203900       0.02893000
   105  F          0.19630190       0.65545600       0.50102000
   106  F          0.80369810       0.15545600      -0.00102000
   107  F          0.80369810       0.34454400       0.49898000
   108  F          0.19630190       0.84454400       0.00102000
