data_LILMEA
_symmetry_space_group_name_H-M    'P1'
_symmetry_Int_Tables_number       1
loop_
_symmetry_equiv_pos_site_id
_symmetry_equiv_pos_as_xyz
1 x,y,z
_cell_length_a                   7.94005
_cell_length_b                   8.56886
_cell_length_c                   11.55038
_cell_angle_alpha                89.2432
_cell_angle_beta                 83.7382
_cell_angle_gamma                65.5702
loop_
_atom_site_label
_atom_site_type_symbol
_atom_site_fract_x
_atom_site_fract_y
_atom_site_fract_z
     1  N          0.63613000       0.26423000       0.10518180
     2  N          0.36387000       0.73577000       0.89481820
     3  O          0.56343000       0.42432000       0.14714170
     4  O          0.43657000       0.57568000       0.85285830
     5  C          0.61704000       0.23254000      -0.00522000
     6  C          0.38296000       0.76746000       0.00522000
     7  H          0.55070000       0.32440000       0.94770000
     8  H          0.44930000       0.67560000       0.05230000
     9  C          0.69365000       0.06684000       0.95037000
    10  C          0.30635000       0.93316000       0.04963000
    11  H          0.67870000       0.04560000       0.87250000
    12  H          0.32130000       0.95440000       0.12750000
    13  C          0.79224000       0.92986000       0.01643000
    14  C          0.20776000       0.07014000       0.98357000
    15  C          0.87886000       0.74826000       0.96786000
    16  C          0.12114000       0.25174000       0.03214000
    17  H          0.90550000       0.74840000       0.88300000
    18  H          0.09450000       0.25160000       0.11700000
    19  H          0.79250000       0.69430000       0.98720000
    20  H          0.20750000       0.30570000       0.01280000
    21  H         -0.00510000       0.68400000       0.00180000
    22  H          0.00510000       0.31600000      -0.00180000
    23  C          0.80784000       0.96896000       0.12953000
    24  C          0.19216000       0.03104000       0.87047000
    25  H          0.87420000       0.87930000       0.17820000
    26  H          0.12580000       0.12070000       0.82180000
    27  C          0.72914000       0.13494000       0.17262000
    28  C          0.27086000       0.86506000       0.82738000
    29  H          0.74030000       0.15880000       0.25070000
    30  H          0.25970000       0.84120000       0.74930000
    31  C          0.99036000       0.69313000       0.41332000
    32  C          0.00964000       0.30687000       0.58668000
    33  I          0.21435200       0.56805200       0.28593314
    34  I          0.78564800       0.43194800       0.71406686
    35  C          0.81336000       0.69473000       0.41522000
    36  C          0.18664000       0.30527000       0.58478000
    37  I          0.73307800       0.56980200       0.29219014
    38  I          0.26692200       0.43019800       0.70780986
    39  C          0.67906000       0.78144000       0.50702000
    40  C          0.32094000       0.21856000       0.49298000
    41  F          0.50848000       0.78643000       0.51361170
    42  F          0.49152000       0.21357000       0.48638830
    43  C          0.71626000       0.86503000       0.59502000
    44  C          0.28374000       0.13497000       0.40498000
    45  F          0.58487000       0.94643000       0.68269150
    46  F          0.41513000       0.05357000       0.31730850
    47  C          0.88936000       0.86373000       0.59282000
    48  C          0.11064000       0.13627000       0.40718000
    49  F          0.92747000       0.94372000       0.67832150
    50  F          0.07253000       0.05628000       0.32167850
    51  C          0.02434000       0.77794000       0.50272000
    52  C          0.97566000       0.22206000       0.49728000
    53  F          0.19093000       0.78123000       0.50489160
    54  F          0.80907000       0.21877000       0.49510840
