data_LILMAW
_symmetry_space_group_name_H-M    'P1'
_symmetry_Int_Tables_number       1
loop_
_symmetry_equiv_pos_site_id
_symmetry_equiv_pos_as_xyz
1 x,y,z
_cell_length_a                   12.482412
_cell_length_b                   7.30417
_cell_length_c                   15.487216
_cell_angle_alpha                90.0
_cell_angle_beta                 97.5363
_cell_angle_gamma                90.0
loop_
_atom_site_label
_atom_site_type_symbol
_atom_site_fract_x
_atom_site_fract_y
_atom_site_fract_z
     1  N          0.44356190       0.63593000       0.36734150
     2  N          0.05643810       0.13593000       0.13265850
     3  N          0.55643810       0.36407000       0.63265850
     4  N          0.94356190       0.86407000       0.86734150
     5  O          0.42238160       0.45743000       0.36058130
     6  O          0.07761840       0.95743000       0.13941870
     7  O          0.57761840       0.54257000       0.63941870
     8  O          0.92238160       0.04257000       0.86058130
     9  C          0.36802000       0.75794000       0.33838190
    10  C          0.13198000       0.25794000       0.16161810
    11  C          0.63198000       0.24206000       0.66161810
    12  C          0.86802000       0.74206000       0.83838190
    13  H          0.29900000       0.71730000       0.31220000
    14  H          0.20100000       0.21730000       0.18780000
    15  H          0.70100000       0.28270000       0.68780000
    16  H          0.79900000       0.78270000       0.81220000
    17  C          0.38912000       0.94184000       0.34612000
    18  C          0.11088000       0.44184000       0.15388000
    19  C          0.61088000       0.05816000       0.65388000
    20  C          0.88912000       0.55816000       0.84612000
    21  H          0.33430000       0.02790000       0.32610000
    22  H          0.16570000       0.52790000       0.17390000
    23  H          0.66570000       0.97210000       0.67390000
    24  H          0.83430000       0.47210000       0.82610000
    25  C          0.48953000       0.00254000       0.38265190
    26  C          0.01047000       0.50254000       0.11734810
    27  C          0.51047000      -0.00254000       0.61734810
    28  C         -0.01047000       0.49746000       0.88265190
    29  H          0.50470000       0.12970000       0.38840000
    30  H         -0.00470000       0.62970000       0.11160000
    31  H          0.49530000       0.87030000       0.61160000
    32  H          0.00470000       0.37030000       0.88840000
    33  C          0.56753000       0.87354000       0.41082000
    34  C          0.93247000       0.37354000       0.08918000
    35  C          0.43247000       0.12646000       0.58918000
    36  C          0.06753000       0.62646000       0.91082000
    37  H          0.63770000       0.91130000       0.43550000
    38  H          0.86230000       0.41130000       0.06450000
    39  H          0.36230000       0.08870000       0.56450000
    40  H          0.13770000       0.58870000       0.93550000
    41  C          0.54272000       0.68974000       0.40292000
    42  C          0.95728000       0.18974000       0.09708000
    43  C          0.45728000       0.31026000       0.59708000
    44  C          0.04272000       0.81026000       0.90292000
    45  H          0.59590000       0.60080000       0.42250000
    46  H          0.90410000       0.10080000       0.07750000
    47  H          0.40410000       0.39920000       0.57750000
    48  H          0.09590000       0.89920000       0.92250000
    49  C          0.46582000       0.29933000       0.06417170
    50  C          0.03418000       0.79933000       0.43582830
    51  C          0.53418000       0.70067000       0.93582830
    52  C          0.96582000       0.20067000       0.56417170
    53  I          0.45207313       0.36631200       0.19365111
    54  I          0.04792687       0.86631200       0.30634889
    55  I          0.54792687       0.63368800       0.80634889
    56  I          0.95207313       0.13368800       0.69365111
    57  C          0.56372000       0.25063000       0.03737170
    58  C          0.93628000       0.75063000       0.46262830
    59  C          0.43628000       0.74937000       0.96262830
    60  C          0.06372000       0.24937000       0.53737170
    61  F          0.65253130       0.25573000       0.09614110
    62  F          0.84746870       0.75573000       0.40385890
    63  F          0.34746870       0.74427000       0.90385890
    64  F          0.15253130       0.24427000       0.59614110
    65  C          0.57322000       0.19713000       0.95313830
    66  C          0.92678000       0.69713000       0.54686170
    67  C          0.42678000       0.80287000       0.04686170
    68  C          0.07322000       0.30287000       0.45313830
    69  I          0.72243813       0.13158200       0.91424789
    70  I          0.77756187       0.63158200       0.58575211
    71  I          0.27756187       0.86841800       0.08575211
    72  I          0.22243813       0.36841800       0.41424789
    73  C          0.47982000       0.19104000       0.89481830
    74  C          0.02018000       0.69104000       0.60518170
    75  C          0.52018000       0.80896000       0.10518170
    76  C          0.97982000       0.30896000       0.39481830
    77  F          0.48605140       0.13572000       0.81313890
    78  F          0.01394860       0.63572000       0.68686110
    79  F          0.51394860       0.86428000       0.18686110
    80  F          0.98605140       0.36428000       0.31313890
    81  C          0.38012000       0.24033000       0.91659830
    82  C          0.11988000       0.74033000       0.58340170
    83  C          0.61988000       0.75967000       0.08340170
    84  C          0.88012000       0.25967000       0.41659830
    85  I          0.24248114       0.22730300       0.82564888
    86  I          0.25751886       0.72730300       0.67435112
    87  I          0.75751886       0.77269700       0.17435112
    88  I          0.74248114       0.27269700       0.32564888
    89  C          0.37612000       0.29703000       0.00126180
    90  C          0.12388000       0.79703000       0.49873820
    91  C          0.62388000       0.70297000      -0.00126180
    92  C          0.87612000       0.20297000       0.50126180
    93  F          0.28060130       0.34902000       0.02376110
    94  F          0.21939870       0.84902000       0.47623890
    95  F          0.71939870       0.65098000       0.97623890
    96  F          0.78060130       0.15098000       0.52376110
