data_LILXIR
_symmetry_space_group_name_H-M    'P1'
_symmetry_Int_Tables_number       1
loop_
_symmetry_equiv_pos_site_id
_symmetry_equiv_pos_as_xyz
1 x,y,z
_cell_length_a                   10.94143
_cell_length_b                   15.89066
_cell_length_c                   14.11273
_cell_angle_alpha                90.0
_cell_angle_beta                 100.90001
_cell_angle_gamma                90.0
loop_
_atom_site_label
_atom_site_type_symbol
_atom_site_fract_x
_atom_site_fract_y
_atom_site_fract_z
     1  P          0.76440500       0.06435400       0.94052400
     2  P          0.73559500       0.56435400       0.55947600
     3  P          0.23559500       0.93564600       0.05947600
     4  P          0.26440500       0.43564600       0.44052400
     5  C          0.89772000       0.10669150       0.91394170
     6  C          0.60228000       0.60669150       0.58605830
     7  C          0.10228000       0.89330850       0.08605830
     8  C          0.39772000       0.39330850       0.41394170
     9  H          0.96274600       0.12153000       0.96360500
    10  H          0.53725400       0.62153000       0.53639500
    11  H          0.03725400       0.87847000       0.03639500
    12  H          0.46274600       0.37847000       0.46360500
    13  C          0.90932000       0.11907150       0.81837190
    14  C          0.59068000       0.61907150       0.68162810
    15  C          0.09068000       0.88092850       0.18162810
    16  C          0.40932000       0.38092850       0.31837190
    17  O          0.82836150       0.09352110       0.74812120
    18  O          0.67163850       0.59352110       0.75187880
    19  O          0.17163850       0.90647890       0.25187880
    20  O          0.32836150       0.40647890       0.24812120
    21  C          0.02122000       0.16610180       0.79672000
    22  C          0.47878000       0.66610180       0.70328000
    23  C          0.97878000       0.83389820       0.20328000
    24  C          0.52122000       0.33389820       0.29672000
    25  H          0.07467000       0.18167300       0.85619900
    26  H          0.42533000       0.68167300       0.64380100
    27  H          0.92533000       0.81832700       0.14380100
    28  H          0.57467000       0.31832700       0.35619900
    29  H          0.06603500       0.13059800       0.76012400
    30  H          0.43396500       0.63059800       0.73987600
    31  H          0.93396500       0.86940200       0.23987600
    32  H          0.56603500       0.36940200       0.26012400
    33  H         -0.00607200       0.21583900       0.76021400
    34  H          0.50607200       0.71583900       0.73978600
    35  H          0.00607200       0.78416100       0.23978600
    36  H          0.49392800       0.28416100       0.26021400
    37  C          0.74438180       0.95204860       0.92117150
    38  C          0.75561820       0.45204860       0.57882850
    39  C          0.25561820       0.04795140       0.07882850
    40  C          0.24438180       0.54795140       0.42117150
    41  C          0.69182000       0.90209830       0.98259180
    42  C          0.80818000       0.40209830       0.51740820
    43  C          0.30818000       0.09790170       0.01740820
    44  C          0.19182000       0.59790170       0.48259180
    45  H          0.66547200       0.92648200       0.03520200
    46  H          0.83452800       0.42648200       0.46479800
    47  H          0.33452800       0.07351800       0.96479800
    48  H          0.16547200       0.57351800       0.53520200
    49  C          0.67752000       0.81672820       0.96742000
    50  C          0.82248000       0.31672820       0.53258000
    51  C          0.32248000       0.18327180       0.03258000
    52  C          0.17752000       0.68327180       0.46742000
    53  H          0.64198900       0.78410300       0.00980000
    54  H          0.85801100       0.28410300       0.49020000
    55  H          0.35801100       0.21589700      -0.00980000
    56  H          0.14198900       0.71589700       0.50980000
    57  C          0.71522000       0.77983820       0.89052000
    58  C          0.78478000       0.27983820       0.60948000
    59  C          0.28478000       0.22016180       0.10948000
    60  C          0.21522000       0.72016180       0.39052000
    61  H          0.70557400       0.72223800       0.88002200
    62  H          0.79442600       0.22223800       0.61997800
    63  H          0.29442600       0.27776200       0.11997800
    64  H          0.20557400       0.77776200       0.38002200
    65  C          0.76723000       0.82868000       0.82922000
    66  C          0.73277000       0.32868000       0.67078000
    67  C          0.23277000       0.17132000       0.17078000
    68  C          0.26723000       0.67132000       0.32922000
    69  H          0.79265000       0.80401400       0.77639800
    70  H          0.70735000       0.30401400       0.72360200
    71  H          0.20735000       0.19598600       0.22360200
    72  H          0.29265000       0.69598600       0.27639800
    73  C          0.78252000       0.91393830       0.84410180
    74  C          0.71748000       0.41393830       0.65589820
    75  C          0.21748000       0.08606170       0.15589820
    76  C          0.28252000       0.58606170       0.34410180
    77  H          0.81882500       0.94605200       0.80179900
    78  H          0.68117500       0.44605200       0.69820100
    79  H          0.18117500       0.05394800       0.19820100
    80  H          0.31882500       0.55394800       0.30179900
    81  C          0.76605190       0.08022130       0.06761150
    82  C          0.73394810       0.58022130       0.43238850
    83  C          0.23394810       0.91977870       0.93238850
    84  C          0.26605190       0.41977870       0.56761150
    85  C          0.86622000       0.04993160       0.13411170
    86  C          0.63378000       0.54993160       0.36588830
    87  C          0.13378000       0.95006840       0.86588830
    88  C          0.36622000       0.45006840       0.63411170
    89  H          0.93274500       0.02486800       0.11258000
    90  H          0.56725500       0.52486800       0.38742000
    91  H          0.06725500       0.97513200       0.88742000
    92  H          0.43274500       0.47513200       0.61258000
    93  C          0.86812000       0.05655170       0.23171180
    94  C          0.63188000       0.55655170       0.26828820
    95  C          0.13188000       0.94344830       0.76828820
    96  C          0.36812000       0.44344830       0.73171180
    97  H          0.93544200       0.03574000       0.27572800
    98  H          0.56455800       0.53574000       0.22427200
    99  H          0.06455800       0.96426000       0.72427200
   100  H          0.43544200       0.46426000       0.77572800
   101  C          0.77063000       0.09389170       0.26381190
   102  C          0.72937000       0.59389170       0.23618810
   103  C          0.22937000       0.90610830       0.73618810
   104  C          0.27063000       0.40610830       0.76381190
   105  H          0.77159300       0.09799000       0.32968700
   106  H          0.72840700       0.59799000       0.17031300
   107  H          0.22840700       0.90201000       0.67031300
   108  H          0.27159300       0.40201000       0.82968700
   109  C          0.67202000       0.12509160       0.19946190
   110  C          0.82798000       0.62509160       0.30053810
   111  C          0.32798000       0.87490840       0.80053810
   112  C          0.17202000       0.37490840       0.69946190
   113  H          0.60665800       0.15107600       0.22173000
   114  H          0.89334200       0.65107600       0.27827000
   115  H          0.39334200       0.84892400       0.77827000
   116  H          0.10665800       0.34892400       0.72173000
   117  C          0.66872000       0.11826150       0.10142170
   118  C          0.83128000       0.61826150       0.39857830
   119  C          0.33128000       0.88173850       0.89857830
   120  C          0.16872000       0.38173850       0.60142170
   121  H          0.60099600       0.13926500       0.05797200
   122  H          0.89900400       0.63926500       0.44202800
   123  H          0.39900400       0.86073500       0.94202800
   124  H          0.10099600       0.36073500       0.55797200
   125  C          0.62533190       0.11466150       0.87539150
   126  C          0.87466810       0.61466150       0.62460850
   127  C          0.37466810       0.88533850       0.12460850
   128  C          0.12533190       0.38533850       0.37539150
   129  C          0.52282000       0.06996160       0.82979160
   130  C          0.97718000       0.56996160       0.67020840
   131  C          0.47718000       0.93003840       0.17020840
   132  C          0.02282000       0.43003840       0.32979160
   133  H          0.52435000       0.01144900       0.83066500
   134  H          0.97565000       0.51144900       0.66933500
   135  H          0.47565000       0.98855100       0.16933500
   136  H          0.02435000       0.48855100       0.33066500
   137  C          0.41812000       0.11170190       0.78287190
   138  C          0.08188000       0.61170190       0.71712810
   139  C          0.58188000       0.88829810       0.21712810
   140  C          0.91812000       0.38829810       0.28287190
   141  H          0.34971800       0.08121300       0.75149000
   142  H          0.15028200       0.58121300       0.74851000
   143  H          0.65028200       0.91878700       0.24851000
   144  H          0.84971800       0.41878700       0.25149000
   145  C          0.41453000       0.19762000       0.78239190
   146  C          0.08547000       0.69762000       0.71760810
   147  C          0.58547000       0.80238000       0.21760810
   148  C          0.91453000       0.30238000       0.28239190
   149  H          0.34348300       0.22543900       0.75099100
   150  H          0.15651700       0.72543900       0.74900900
   151  H          0.65651700       0.77456100       0.24900900
   152  H          0.84348300       0.27456100       0.25099100
   153  C          0.51573000       0.24317180       0.82832000
   154  C          0.98427000       0.74317180       0.67168000
   155  C          0.48427000       0.75682820       0.17168000
   156  C          0.01573000       0.25682820       0.32832000
   157  H          0.51278400       0.30165700       0.82863500
   158  H         -0.01278400       0.80165700       0.67136500
   159  H          0.48721600       0.69834300       0.17136500
   160  H          0.01278400       0.19834300       0.32863500
   161  C          0.62172000       0.20163160       0.87391170
   162  C          0.87828000       0.70163160       0.62608830
   163  C          0.37828000       0.79836840       0.12608830
   164  C          0.12172000       0.29836840       0.37391170
   165  H          0.69071600       0.23230100       0.90369000
   166  H          0.80928400       0.73230100       0.59631000
   167  H          0.30928400       0.76769900       0.09631000
   168  H          0.19071600       0.26769900       0.40369000
   169  N          0.87773000       0.02352000       0.57018190
   170  N          0.62227000       0.52352000       0.92981810
   171  N          0.12227000       0.97648000       0.42981810
   172  N          0.37773000       0.47648000       0.07018190
   173  H          0.85320000       0.04401800       0.61920000
   174  H          0.64680000       0.54401800       0.88080000
   175  H          0.14680000       0.95598200       0.38080000
   176  H          0.35320000       0.45598200       0.11920000
   177  H          0.95530000       0.04320000       0.56020000
   178  H          0.54470000       0.54320000       0.93980000
   179  H          0.04470000       0.95680000       0.43980000
   180  H          0.45530000       0.45680000       0.06020000
   181  C          0.82483000       0.95998000       0.51632000
   182  C          0.67517000       0.45998000       0.98368000
   183  C          0.17517000       0.04002000       0.48368000
   184  C          0.32483000       0.54002000       0.01632000
   185  O          0.87362000       0.92880830       0.45255160
   186  O          0.62638000       0.42880830       0.04744840
   187  O          0.12638000       0.07119170       0.54744840
   188  O          0.37362000       0.57119170       0.95255160
   189  C          0.70252000       0.92665810       0.53268170
   190  C          0.79748000       0.42665810       0.96731830
   191  C          0.29748000       0.07334190       0.46731830
   192  C          0.20252000       0.57334190       0.03268170
   193  C          0.63583000       0.96183810       0.59730180
   194  C          0.86417000       0.46183810       0.90269820
   195  C          0.36417000       0.03816190       0.40269820
   196  C          0.13583000       0.53816190       0.09730180
   197  H          0.66877500       0.00712100       0.63548900
   198  H          0.83122500       0.50712100       0.86451100
   199  H          0.33122500      -0.00712100       0.36451100
   200  H          0.16877500       0.49287900       0.13548900
   201  C          0.52133000       0.93008000       0.60512000
   202  C          0.97867000       0.43008000       0.89488000
   203  C          0.47867000       0.06992000       0.39488000
   204  C          0.02133000       0.56992000       0.10512000
   205  H          0.47724300       0.95419300       0.64848000
   206  H          0.02275700       0.45419300       0.85152000
   207  H          0.52275700       0.04580700       0.35152000
   208  H          0.97724300       0.54580700       0.14848000
   209  C          0.47163000       0.86328000       0.54952000
   210  C          0.02837000       0.36328000       0.95048000
   211  C          0.52837000       0.13672000       0.45048000
   212  C          0.97163000       0.63672000       0.04952000
   213  H          0.39396200       0.84237600       0.55512700
   214  H          0.10603800       0.34237600       0.94487300
   215  H          0.60603800       0.15762400       0.44487300
   216  H          0.89396200       0.65762400       0.05512700
   217  C          0.53623000       0.82718000       0.48552000
   218  C          0.96377000       0.32718000       0.01448000
   219  C          0.46377000       0.17282000       0.51448000
   220  C          0.03623000       0.67282000       0.98552000
   221  H          0.50265900       0.78176100       0.44791400
   222  H         -0.00265900       0.28176100       0.05208600
   223  H          0.49734100       0.21823900       0.55208600
   224  H          0.00265900       0.71823900       0.94791400
   225  C          0.65183000       0.85909810       0.47752000
   226  C          0.84817000       0.35909810       0.02248000
   227  C          0.34817000       0.14090190       0.52248000
   228  C          0.15183000       0.64090190       0.97752000
   229  H          0.69576000       0.83461100       0.43424800
   230  H          0.80424000       0.33461100       0.06575200
   231  H          0.30424000       0.16538900       0.56575200
   232  H          0.19576000       0.66538900       0.93424800
