data_LINFIX
_symmetry_space_group_name_H-M    'P1'
_symmetry_Int_Tables_number       1
loop_
_symmetry_equiv_pos_site_id
_symmetry_equiv_pos_as_xyz
1 x,y,z
_cell_length_a                   7.3831
_cell_length_b                   11.0452
_cell_length_c                   11.2532
_cell_angle_alpha                92.682
_cell_angle_beta                 90.382
_cell_angle_gamma                95.932
loop_
_atom_site_label
_atom_site_type_symbol
_atom_site_fract_x
_atom_site_fract_y
_atom_site_fract_z
     1  C          0.58142000       0.75462000       0.69652000
     2  C          0.41858000       0.24538000       0.30348000
     3  C          0.62202000       0.85052000       0.62202000
     4  C          0.37798000       0.14948000       0.37798000
     5  C          0.57022000       0.84512000       0.50422000
     6  C          0.42978000       0.15488000       0.49578000
     7  C          0.46832000       0.74342000       0.45712000
     8  C          0.53168000       0.25658000       0.54288000
     9  C          0.42242000       0.64722000       0.52732000
    10  C          0.57758000       0.35278000       0.47268000
    11  C          0.48112000       0.65212000       0.64372000
    12  C          0.51888000       0.34788000       0.35628000
    13  C          0.64572000       0.76632000       0.81932000
    14  C          0.35428000       0.23368000       0.18068000
    15  C          0.61532000       0.68762000       0.90412000
    16  C          0.38468000       0.31238000       0.09588000
    17  C          0.69612000       0.71492000       0.02322000
    18  C          0.30388000       0.28508000       0.97678000
    19  O          0.67402000       0.62661000       0.09451000
    20  O          0.32598000       0.37339000       0.90549000
    21  O          0.77932000       0.81631000       0.05131000
    22  O          0.22068000       0.18369000       0.94869000
    23  F          0.72012000       0.95261000       0.66401000
    24  F          0.27988000       0.04739000       0.33599000
    25  F          0.62121000       0.93801000       0.43471000
    26  F          0.37879000       0.06199000       0.56529000
    27  F          0.41632000       0.73771000       0.34261000
    28  F          0.58368000       0.26229000       0.65739000
    29  F          0.32201000       0.54741000       0.48151000
    30  F          0.67799000       0.45259000       0.51849000
    31  F          0.44061000       0.55231000       0.70561000
    32  F          0.55939000       0.44769000       0.29439000
    33  H          0.71982800       0.83741800       0.84061700
    34  H          0.28017200       0.16258200       0.15938300
    35  H          0.54472500       0.60621700       0.89031500
    36  H          0.45527500       0.39378300       0.10968500
    37  H          0.72574300       0.64742700       0.17452700
    38  H          0.27425700       0.35257300       0.82547300
    39  C          0.04482000       0.73042000       0.65522000
    40  C          0.95518000       0.26958000       0.34478000
    41  C          0.11432000       0.84302000       0.70862000
    42  C          0.88568000       0.15698000       0.29138000
    43  C          0.17202000       0.85422000       0.82532000
    44  C          0.82798000       0.14578000       0.17468000
    45  C          0.16502000       0.75102000       0.89582000
    46  C          0.83498000       0.24898000       0.10418000
    47  C          0.09372000       0.63862000       0.84232000
    48  C          0.90628000       0.36138000       0.15768000
    49  C          0.03532000       0.62952000       0.72602000
    50  C          0.96468000       0.37048000       0.27398000
    51  C         -0.01658000       0.71572000       0.53242000
    52  C          0.01658000       0.28428000       0.46758000
    53  C          0.00032000       0.79812000       0.44892000
    54  C         -0.00032000       0.20188000       0.55108000
    55  C          0.92122000       0.77192000       0.33102000
    56  C          0.07878000       0.22808000       0.66898000
    57  C          0.28883000       0.87882000       0.06632000
    58  C          0.71117000       0.12118000       0.93368000
    59  C          0.20323000       0.65582000       0.08352000
    60  C          0.79677000       0.34418000       0.91648000
    61  N          0.22672000       0.76071000       0.01071000
    62  N          0.77328000       0.23929000      -0.01071000
    63  O          0.94722000       0.85871000       0.25781000
    64  O          0.05278000       0.14129000       0.74219000
    65  O          0.83182000       0.67201000       0.30311000
    66  O          0.16818000       0.32799000       0.69689000
    67  H          0.11382500       0.91561700       0.66391600
    68  H          0.88617500       0.08438300       0.33608400
    69  H          0.21812600       0.93441700       0.86311700
    70  H          0.78187400       0.06558300       0.13688300
    71  H          0.08692600       0.56341800       0.88281700
    72  H          0.91307400       0.43658200       0.11718300
    73  H         -0.01067200       0.55141900       0.68861800
    74  H          0.01067200       0.44858100       0.31138200
    75  H          0.92422400       0.64291700       0.51451500
    76  H          0.07577600       0.35708300       0.48548500
    77  H          0.06222400       0.87631700       0.45951500
    78  H          0.93777600       0.12368300       0.54048500
    79  H          0.32842900       0.87211900       0.15432000
    80  H          0.67157100       0.12788100       0.84568000
    81  H          0.18933300       0.93732000       0.06712000
    82  H          0.81066700       0.06268000       0.93288000
    83  H          0.39383300       0.91232000       0.02572000
    84  H          0.60616700       0.08768000       0.97428000
    85  H          0.25713200       0.67712100       0.16062200
    86  H          0.74286800       0.32287900       0.83937800
    87  H          0.26042900       0.58832000       0.04991900
    88  H          0.73957100       0.41168000       0.95008100
    89  H          0.06623300       0.62222000       0.09231900
    90  H          0.93376700       0.37778000       0.90768100
    91  H          0.87703800       0.84222500       0.19192500
    92  H          0.12296200       0.15777500       0.80807500
