data_LIPYAK
_symmetry_space_group_name_H-M    'P1'
_symmetry_Int_Tables_number       1
loop_
_symmetry_equiv_pos_site_id
_symmetry_equiv_pos_as_xyz
1 x,y,z
_cell_length_a                   7.73425
_cell_length_b                   13.362414
_cell_length_c                   14.984311
_cell_angle_alpha                110.5146
_cell_angle_beta                 95.1956
_cell_angle_gamma                95.8957
loop_
_atom_site_label
_atom_site_type_symbol
_atom_site_fract_x
_atom_site_fract_y
_atom_site_fract_z
     1  S          0.36375700       0.03072400       0.13013400
     2  S          0.63624300       0.96927600       0.86986600
     3  O         -0.00485850       0.22322110       0.41741800
     4  O          0.00485850       0.77677890       0.58258200
     5  O          0.08412170       0.30651130       0.93481900
     6  O          0.91587830       0.69348870       0.06518100
     7  C          0.55292000       0.10110130       0.21361120
     8  C          0.44708000       0.89889870       0.78638880
     9  C          0.53772000       0.16396150       0.30720120
    10  C          0.46228000       0.83603850       0.69279880
    11  C          0.68312000       0.20743150       0.37570120
    12  C          0.31688000       0.79256850       0.62429880
    13  C          0.84852000       0.18691140       0.35218110
    14  C          0.15148000       0.81308860       0.64781890
    15  C          0.86492000       0.12613150       0.25832120
    16  C          0.13508000       0.87386850       0.74167880
    17  C          0.71883000       0.08397150       0.18996120
    18  C          0.28117000       0.91602850       0.81003880
    19  C          0.29412000       0.12155130       0.07634100
    20  C          0.70588000       0.87844870       0.92365900
    21  C          0.11622000       0.12248140       0.06042110
    22  C          0.88378000       0.87751860       0.93957890
    23  C          0.04882000       0.18181150       0.01042120
    24  C          0.95118000       0.81818850       0.98957880
    25  C          0.15942000       0.24503140       0.97794890
    26  C          0.84058000       0.75496860       0.02205110
    27  C          0.33852000       0.24510140      -0.00630120
    28  C          0.66148000       0.75489860       0.00630120
    29  C          0.40462000       0.18255140       0.04110120
    30  C          0.59538000       0.81744860       0.95889880
    31  H          0.96760000       0.24670000       0.47170000
    32  H          0.03240000       0.75330000       0.52830000
    33  H          0.15750000       0.33260000       0.90990000
    34  H          0.84250000       0.66740000       0.09010000
    35  H          0.42720000       0.17710000       0.32420000
    36  H          0.57280000       0.82290000       0.67580000
    37  H          0.67030000       0.25070000       0.43800000
    38  H          0.32970000       0.74930000       0.56200000
    39  H          0.97540000       0.11350000       0.24110000
    40  H          0.02460000       0.88650000       0.75890000
    41  H          0.73200000       0.04340000       0.12700000
    42  H          0.26800000       0.95660000       0.87300000
    43  H          0.04020000       0.08220000       0.08390000
    44  H          0.95980000       0.91780000       0.91610000
    45  H          0.92800000       0.17920000      -0.00150000
    46  H          0.07200000       0.82080000       0.00150000
    47  H          0.41460000       0.28750000       0.97220000
    48  H          0.58540000       0.71250000       0.02780000
    49  H          0.52490000       0.18140000       0.04950000
    50  H          0.47510000       0.81860000       0.95050000
    51  N          0.89380180       0.22912110       0.58957100
    52  N          0.10619820       0.77087890       0.41042900
    53  C          0.84012190       0.30006130       0.66846110
    54  C          0.15987810       0.69993870       0.33153890
    55  C          0.79622000       0.27033140       0.74569120
    56  C          0.20378000       0.72966860       0.25430880
    57  C          0.81103000       0.16413160       0.73920150
    58  C          0.18897000       0.83586840       0.26079850
    59  C          0.86383000       0.09403160       0.65972160
    60  C          0.13617000       0.90596840       0.34027840
    61  C          0.90372000       0.13053150       0.58673140
    62  C          0.09628000       0.86946850       0.41326860
    63  C          0.74032000       0.34799160       0.82617120
    64  C          0.25968000       0.65200840       0.17382880
    65  N          0.87423170       0.43519110       0.59691900
    66  N          0.12576830       0.56480890       0.40308100
    67  C          0.82876190       0.40831130       0.67189100
    68  C          0.17123810       0.59168870       0.32810900
    69  C          0.77184190       0.48229130       0.75312110
    70  C          0.22815810       0.51770870       0.24687890
    71  C          0.76222000       0.58675140       0.75393130
    72  C          0.23778000       0.41324860       0.24606870
    73  C          0.80952000       0.61360150       0.67954140
    74  C          0.19048000       0.38639850       0.32045860
    75  C          0.86472000       0.53572150       0.60317130
    76  C          0.13528000       0.46427850       0.39682870
    77  C          0.72842000       0.44886160       0.82991120
    78  C          0.27158000       0.55113840       0.17008880
    79  H          0.78460000       0.14180000       0.78930000
    80  H          0.21540000       0.85820000       0.21070000
    81  H          0.87310000       0.02340000       0.65430000
    82  H          0.12690000       0.97660000       0.34570000
    83  H          0.93960000       0.08210000       0.53250000
    84  H          0.06040000       0.91790000       0.46750000
    85  H          0.71140000       0.32840000       0.87730000
    86  H          0.28860000       0.67160000       0.12270000
    87  H          0.72340000       0.63760000       0.80550000
    88  H          0.27660000       0.36240000       0.19450000
    89  H          0.80500000       0.68290000       0.67970000
    90  H          0.19500000       0.31710000       0.32030000
    91  H          0.89740000       0.55550000       0.55270000
    92  H          0.10260000       0.44450000       0.44730000
    93  H          0.69120000       0.49770000       0.88340000
    94  H          0.30880000       0.50230000       0.11660000
    95  N          0.23204190       0.43628130       0.84552900
    96  N          0.76795810       0.56371870       0.15447100
    97  C          0.28322000       0.41071130       0.75741880
    98  C          0.71678000       0.58928870       0.24258120
    99  C          0.30062000       0.48535140       0.71084870
   100  C          0.69938000       0.51464860       0.28915130
   101  C          0.26393000       0.58927170       0.75958000
   102  C          0.73607000       0.41072830       0.24042000
   103  C          0.21023000       0.61362180       0.84708000
   104  C          0.78977000       0.38637820       0.15292000
   105  C          0.19553000       0.53514190       0.88770840
   106  C          0.80447000       0.46485810       0.11229160
   107  C          0.34942000       0.45268180       0.61711850
   108  C          0.65058000       0.54731820       0.38288150
   109  N          0.30472000       0.23299130       0.75652880
   110  N          0.69528000       0.76700870       0.24347120
   111  C          0.31782000       0.30195140       0.70883880
   112  C          0.68218000       0.69804860       0.29116120
   113  C          0.36102000       0.27259150       0.61482870
   114  C          0.63898000       0.72740850       0.38517130
   115  C          0.38833000       0.16648190       0.56896830
   116  C          0.61167000       0.83351810       0.43103170
   117  C          0.37483000       0.09661190       0.61498000
   118  C          0.62517000       0.90338810       0.38502000
   119  C          0.33423000       0.13232180       0.70878000
   120  C          0.66577000       0.86767820       0.29122000
   121  C          0.37612000       0.35096190       0.57053860
   122  C          0.62388000       0.64903810       0.42946140
   123  H          0.27640000       0.64150000       0.73190000
   124  H          0.72360000       0.35850000       0.26810000
   125  H          0.18340000       0.68220000       0.87970000
   126  H          0.81660000       0.31780000       0.12030000
   127  H          0.15790000       0.55290000       0.94790000
   128  H          0.84210000       0.44710000       0.05210000
   129  H          0.36310000       0.50290000       0.58730000
   130  H          0.63690000       0.49710000       0.41270000
   131  H          0.41580000       0.14390000       0.50650000
   132  H          0.58420000       0.85610000       0.49350000
   133  H          0.39240000       0.02540000       0.58470000
   134  H          0.60760000       0.97460000       0.41530000
   135  H          0.32720000       0.08330000       0.74000000
   136  H          0.67280000       0.91670000       0.26000000
   137  H          0.40490000       0.33130000       0.50840000
   138  H          0.59510000       0.66870000       0.49160000
