data_LIRJED
_symmetry_space_group_name_H-M    'P1'
_symmetry_Int_Tables_number       1
loop_
_symmetry_equiv_pos_site_id
_symmetry_equiv_pos_as_xyz
1 x,y,z
_cell_length_a                   8.599019
_cell_length_b                   11.5583
_cell_length_c                   16.7654
_cell_angle_alpha                84.4395
_cell_angle_beta                 77.0845
_cell_angle_gamma                82.2975
loop_
_atom_site_label
_atom_site_type_symbol
_atom_site_fract_x
_atom_site_fract_y
_atom_site_fract_z
     1  Br         0.94733300       0.09674400       0.66000400
     2  Br         0.05266700       0.90325600       0.33999600
     3  Br         0.13907600       0.33832500       0.52047400
     4  Br         0.86092400       0.66167500       0.47952600
     5  Br         0.77313300       0.07324500       0.05347300
     6  Br         0.22686700       0.92675500       0.94652700
     7  Br         0.66899800       0.86263500       0.85315400
     8  Br         0.33100200       0.13736500       0.14684600
     9  C          0.12576000       0.50714000       0.79083000
    10  C          0.87424000       0.49286000       0.20917000
    11  C          0.60606000       0.40254000       0.66353000
    12  C          0.39394000       0.59746000       0.33647000
    13  C          0.95943000       0.84995000       0.65843000
    14  C          0.04057000       0.15005000       0.34157000
    15  N          0.83965000       0.57664000       0.87193000
    16  N          0.16035000       0.42336000       0.12807000
    17  C          0.09776000       0.31304000       0.86723000
    18  C          0.90224000       0.68696000       0.13277000
    19  C          0.02306000       0.93904000       0.68503000
    20  C          0.97694000       0.06096000       0.31497000
    21  C          0.20796000       0.58694000       0.73493000
    22  C          0.79204000       0.41306000       0.26507000
    23  C          0.46417000       0.14905000       0.72883000
    24  C          0.53583000       0.85095000       0.27117000
    25  C          0.56866000       0.01284000       0.82553000
    26  C          0.43134000       0.98716000       0.17447000
    27  C          0.90524000       0.17094000       0.97833000
    28  C          0.09476000       0.82906000       0.02167000
    29  C          0.96504000       0.54574000       0.83653000
    30  C          0.03496000       0.45426000       0.16347000
    31  C          0.93143000       0.15555000       0.89504000
    32  C          0.06857000       0.84445000       0.10496000
    33  C          0.36396000       0.54774000       0.69253000
    34  C          0.63604000       0.45226000       0.30747000
    35  C          0.13886000       0.70994000       0.71973000
    36  C          0.86114000       0.29006000       0.28027000
    37  C          0.19446000       0.39264000       0.80623000
    38  C          0.80554000       0.60736000       0.19377000
    39  C          0.88877000       0.40455000       0.65643000
    40  C          0.11123000       0.59545000       0.34357000
    41  C          0.46416000       0.20765000       0.86113000
    42  C          0.53584000       0.79235000       0.13887000
    43  C          0.64176000       0.36015000       0.58573000
    44  C          0.35824000       0.63985000       0.41427000
    45  C          0.80136000       0.33895000       0.54363000
    46  C          0.19864000       0.66105000       0.45637000
    47  C          0.43676000       0.43314000       0.70653000
    48  C          0.56324000       0.56686000       0.29347000
    49  C          0.19787000       0.80064000       0.74803000
    50  C          0.80213000       0.19936000       0.25197000
    51  C          0.92246000       0.36364000       0.57863000
    52  C          0.07754000       0.63636000       0.42137000
    53  N          0.51596000       0.69494000       0.58663000
    54  N          0.48404000       0.30506000       0.41337000
    55  C          0.13856000       0.91604000       0.73133000
    56  C          0.86144000       0.08396000       0.26867000
    57  C          0.02767000       0.22765000       0.84014000
    58  C          0.97233000       0.77235000       0.15986000
    59  C          0.35006000       0.35544000       0.76413000
    60  C          0.64994000       0.64456000       0.23587000
    61  C          0.45026000       0.62924000       0.63353000
    62  C          0.54974000       0.37076000       0.36647000
    63  C          0.42766000       0.23494000       0.78373000
    64  C          0.57234000       0.76506000       0.21627000
    65  C          0.53517000       0.09655000       0.88223000
    66  C          0.46483000       0.90345000       0.11777000
    67  C          0.73067000       0.42645000       0.69834000
    68  C          0.26933000       0.57355000       0.30166000
    69  C          0.97463000       0.25445000       0.00694000
    70  C          0.02537000       0.74555000      -0.00694000
    71  C          0.07037000       0.32585000       0.95073000
    72  C          0.92963000       0.67415000       0.04927000
    73  C          0.01836000       0.73574000       0.67503000
    74  C          0.98164000       0.26426000       0.32497000
    75  C          0.53497000       0.03755000       0.74904000
    76  C          0.46503000       0.96245000       0.25096000
    77  H          0.55570000       0.34640000       0.56030000
    78  H          0.44430000       0.65360000       0.43970000
    79  H          0.82170000       0.30350000       0.48830000
    80  H          0.17830000       0.69650000       0.51170000
    81  H          0.95030000       0.25750000       0.06140000
    82  H          0.04970000       0.74250000       0.93860000
    83  H          0.44960000       0.16340000       0.68530000
    84  H          0.55040000       0.83660000       0.31470000
    85  H          0.97170000       0.42350000       0.68130000
    86  H          0.02830000       0.57650000       0.31870000
    87  H          0.69860000       0.45640000       0.74930000
    88  H          0.30140000       0.54360000       0.25070000
    89  H          0.11970000       0.38350000       0.96930000
    90  H          0.88030000       0.61650000       0.03070000
    91  H          0.04780000       0.22150000       0.78840000
    92  H          0.95220000       0.77850000       0.21160000
    93  H          0.89640000       0.86740000       0.63030000
    94  H          0.10360000       0.13260000       0.36970000
    95  H          0.43770000       0.27550000       0.90140000
    96  H          0.56230000       0.72450000       0.09860000
    97  H          0.29090000       0.78460000       0.77640000
    98  H          0.70910000       0.21540000       0.22360000
    99  H          0.17960000       0.97850000       0.75630000
   100  H          0.82040000       0.02150000       0.24370000
   101  H          0.89430000       0.10650000       0.87830000
   102  H          0.10570000       0.89350000       0.12170000
   103  H          0.56180000       0.98440000       0.70640000
   104  H          0.43820000       0.01560000       0.29360000
   105  H          0.54570000       0.07750000       0.94530000
   106  H          0.45430000       0.92250000       0.05470000
   107  H          0.97330000       0.67950000       0.66030000
   108  H          0.02670000       0.32050000       0.33970000
   109  Cl         0.28140180       0.95350130       0.47695900
   110  Cl         0.71859820       0.04649870       0.52304100
   111  C          0.41847000       0.00386000       0.52764000
   112  C          0.58153000      -0.00386000       0.47236000
   113  H          0.38880000       0.09360000       0.54640000
   114  H          0.61120000       0.90640000       0.45360000
   115  H          0.42710000       0.95970000       0.58350000
   116  H          0.57290000       0.04030000       0.41650000
   117  H          0.61280000       0.90760000       0.45440000
   118  H          0.38720000       0.09240000       0.54560000
   119  H          0.57310000       0.04170000       0.41750000
   120  H          0.42690000       0.95830000       0.58250000
   121  Cl         0.39562000       0.56426140       0.89703900
   122  Cl         0.60438000       0.43573860       0.10296100
   123  C          0.46747000       0.56165000       0.98913000
   124  C          0.53253000       0.43835000       0.01087000
   125  H          0.38470000       0.58650000       0.03030000
   126  H          0.61530000       0.41350000       0.96970000
   127  H          0.55870000       0.61650000       0.98030000
   128  H          0.44130000       0.38350000       0.01970000
   129  H          0.61670000       0.41450000       0.97030000
   130  H          0.38330000       0.58550000       0.02970000
   131  H          0.44270000       0.38450000       0.02030000
   132  H          0.55730000       0.61550000       0.97970000
