data_LIRNOT
_symmetry_space_group_name_H-M    'P1'
_symmetry_Int_Tables_number       1
loop_
_symmetry_equiv_pos_site_id
_symmetry_equiv_pos_as_xyz
1 x,y,z
_cell_length_a                   11.3277716
_cell_length_b                   17.47972
_cell_length_c                   13.90722
_cell_angle_alpha                90.0
_cell_angle_beta                 104.118115
_cell_angle_gamma                90.0
loop_
_atom_site_label
_atom_site_type_symbol
_atom_site_fract_x
_atom_site_fract_y
_atom_site_fract_z
     1  N          0.25824120       0.72168700       0.43256100
     2  N          0.24175880       0.22168700       0.06743900
     3  N          0.74175880       0.27831300       0.56743900
     4  N          0.75824120       0.77831300       0.93256100
     5  N          0.64191120       0.74681700       0.59677110
     6  N          0.85808880       0.24681700       0.90322890
     7  N          0.35808880       0.25318300       0.40322890
     8  N          0.14191120       0.75318300       0.09677110
     9  C          0.40003120       0.45439800       0.45315900
    10  C          0.09996880       0.95439800       0.04684100
    11  C          0.59996880       0.54560200       0.54684100
    12  C          0.90003120       0.04560200       0.95315900
    13  H          0.33469200       0.42362000       0.42247800
    14  H          0.16530800       0.92362000       0.07752200
    15  H          0.66530800       0.57638000       0.57752200
    16  H          0.83469200       0.07638000       0.92247800
    17  C          0.48267120       0.58036800       0.50500900
    18  C          0.01732880       0.08036800      -0.00500900
    19  C          0.51732880       0.41963200       0.49499100
    20  C          0.98267120       0.91963200       0.00500900
    21  C          0.46593120       0.65803800       0.50998900
    22  C          0.03406880       0.15803800      -0.00998900
    23  C          0.53406880       0.34196200       0.49001100
    24  C          0.96593120       0.84196200       0.00998900
    25  C          0.38392120       0.53039800       0.45786900
    26  C          0.11607880       0.03039800       0.04213100
    27  C          0.61607880       0.46960200       0.54213100
    28  C          0.88392120       0.96960200       0.95786900
    29  H          0.30764100       0.55120900       0.43019800
    30  H          0.19235900       0.05120900       0.06980200
    31  H          0.69235900       0.44879100       0.56980200
    32  H          0.80764100       0.94879100       0.93019800
    33  C          0.35053130       0.69372800       0.46760100
    34  C          0.14946870       0.19372800       0.03239900
    35  C          0.64946870       0.30627200       0.53239900
    36  C          0.85053130       0.80627200       0.96760100
    37  C          0.56297130       0.70805800       0.55755110
    38  C          0.93702870       0.20805800       0.94244890
    39  C          0.43702870       0.29194200       0.44244890
    40  C          0.06297130       0.79194200       0.05755110
    41  C          0.65193120       0.46522800       0.80309900
    42  C          0.84806880       0.96522800       0.69690100
    43  C          0.34806880       0.53477200       0.19690100
    44  C          0.15193120       0.03477200       0.30309900
    45  C          0.62774120       0.54475800       0.80261900
    46  C          0.87225880       0.04475800       0.69738100
    47  C          0.37225880       0.45524200       0.19738100
    48  C          0.12774120       0.95524200       0.30261900
    49  C          0.55613130       0.41114800       0.75728900
    50  C          0.94386870       0.91114800       0.74271100
    51  C          0.44386870       0.58885200       0.24271100
    52  C          0.05613130       0.08885200       0.25728900
    53  C          0.57786130       0.33215800       0.75370100
    54  C          0.92213870       0.83215800       0.74629900
    55  C          0.42213870       0.66784200       0.24629900
    56  C          0.07786130       0.16784200       0.25370100
    57  H          0.65558100       0.31334300       0.78114900
    58  H          0.84441900       0.81334300       0.71885100
    59  H          0.34441900       0.68665700       0.21885100
    60  H          0.15558100       0.18665700       0.28114900
    61  C          0.47506130       0.65110800       0.75879100
    62  C          0.02493870       0.15110800       0.74120900
    63  C          0.52493870       0.34889200       0.24120900
    64  C          0.97506130       0.84889200       0.25879100
    65  H          0.53614500       0.68571900       0.78672400
    66  H          0.96385500       0.18571900       0.71327600
    67  H          0.46385500       0.31428100       0.21327600
    68  H          0.03614500       0.81428100       0.28672400
    69  C          0.50373120       0.57232800       0.75856900
    70  C         -0.00373120       0.07232800       0.74143100
    71  C          0.49626880       0.42767200       0.24143100
    72  C          0.00373120       0.92767200       0.25856900
    73  C          0.29269130       0.54974800       0.67543100
    74  C          0.20730870       0.04974800       0.82456900
    75  C          0.70730870       0.45025200       0.32456900
    76  C          0.79269130       0.95025200       0.17543100
    77  H          0.23040300       0.51601700       0.64710300
    78  H          0.26959700       0.01601700       0.85289700
    79  H          0.76959700       0.48398300       0.35289700
    80  H          0.73040300       0.98398300       0.14710300
    81  C          0.48670140       0.28205800       0.71049110
    82  C          0.01329860       0.78205800       0.78950890
    83  C          0.51329860       0.71794200       0.28950890
    84  C         -0.01329860       0.21794200       0.21049110
    85  H          0.50344100       0.23006000       0.70865600
    86  H         -0.00344100       0.73006000       0.79134400
    87  H          0.49655900       0.76994000       0.29134400
    88  H          0.00344100       0.26994000       0.20865600
    89  C          0.37000140       0.30870900       0.66968110
    90  C          0.12999860       0.80870900       0.83031890
    91  C          0.62999860       0.69129100       0.33031890
    92  C          0.87000140       0.19129100       0.16968110
    93  H          0.30843100       0.27465100       0.64087000
    94  H          0.19156900       0.77465100       0.85913000
    95  H          0.69156900       0.72534900       0.35913000
    96  H          0.80843100       0.22534900       0.14087000
    97  C          0.41033130       0.52055800       0.71592100
    98  C          0.08966870       0.02055800       0.78407900
    99  C          0.58966870       0.47944200       0.28407900
   100  C          0.91033130       0.97944200       0.21592100
   101  C          0.72211130       0.59491800       0.84634100
   102  C          0.77788870       0.09491800       0.65365900
   103  C          0.27788870       0.40508200       0.15365900
   104  C          0.22211130       0.90508200       0.34634100
   105  H          0.70684800       0.64721100       0.84564100
   106  H          0.79315200       0.14721100       0.65435900
   107  H          0.29315200       0.35278900       0.15435900
   108  H          0.20684800       0.85278900       0.34564100
   109  C          0.86092130       0.48992900       0.89204100
   110  C          0.63907870       0.98992900       0.60795900
   111  C          0.13907870       0.51007100       0.10795900
   112  C          0.36092130       0.01007100       0.39204100
   113  H          0.93831500       0.47178100       0.92205700
   114  H          0.56168500       0.97178100       0.57794300
   115  H          0.06168500       0.52821900       0.07794300
   116  H          0.43831500       0.02821900       0.42205700
   117  C          0.77024130       0.43922800       0.84939100
   118  C          0.72975870       0.93922800       0.65060900
   119  C          0.22975870       0.56077200       0.15060900
   120  C          0.27024130       0.06077200       0.34939100
   121  H          0.78709500       0.38710000       0.85107300
   122  H          0.71290500       0.88710000       0.64892700
   123  H          0.21290500       0.61290000       0.14892700
   124  H          0.28709500       0.11290000       0.35107300
   125  C          0.43641130       0.43837800       0.71470900
   126  C          0.06358870       0.93837800       0.78529100
   127  C          0.56358870       0.56162200       0.28529100
   128  C          0.93641130       0.06162200       0.21470900
   129  C          0.83753130       0.56815900       0.89053100
   130  C          0.66246870       0.06815900       0.60946900
   131  C          0.16246870       0.43184100       0.10946900
   132  C          0.33753130       0.93184100       0.39053100
   133  H          0.89916200       0.60223600       0.91907900
   134  H          0.60083800       0.10223600       0.58092100
   135  H          0.10083800       0.39776400       0.08092100
   136  H          0.39916200       0.89776400       0.41907900
   137  C          0.35962140       0.67779900       0.71892110
   138  C          0.14037860       0.17779900       0.78107890
   139  C          0.64037860       0.32220100       0.28107890
   140  C          0.85962140       0.82220100       0.21892110
   141  H          0.34294200       0.72982700       0.72010300
   142  H          0.15705800       0.22982700       0.77989700
   143  H          0.65705800       0.27017300       0.27989700
   144  H          0.84294200       0.77017300       0.22010300
   145  C          0.34562130       0.38537900       0.67191100
   146  C          0.15437870       0.88537900       0.82808900
   147  C          0.65437870       0.61462100       0.32808900
   148  C          0.84562130       0.11462100       0.17191100
   149  H          0.26702600       0.40272500       0.64440800
   150  H          0.23297400       0.90272500       0.85559200
   151  H          0.73297400       0.59727500       0.35559200
   152  H          0.76702600       0.09727500       0.14440800
   153  C          0.26741140       0.62637900       0.67661110
   154  C          0.23258860       0.12637900       0.82338890
   155  C          0.73258860       0.37362100       0.32338890
   156  C          0.76741140       0.87362100       0.17661110
   157  H          0.18895700       0.64403200       0.64924900
   158  H          0.31104300       0.14403200       0.85075100
   159  H          0.81104300       0.35596800       0.35075100
   160  H          0.68895700       0.85596800       0.14924900
   161  N          0.38128120       0.11307800       0.62686110
   162  N          0.11871880       0.61307800       0.87313890
   163  N          0.61871880       0.88692200       0.37313890
   164  N          0.88128120       0.38692200       0.12686110
   165  N          0.35942140       0.86433100       0.64475110
   166  N          0.14057860       0.36433100       0.85524890
   167  N          0.64057860       0.13566900       0.35524890
   168  N          0.85942140       0.63566900       0.14475110
   169  C          0.06725130       0.06827800       0.51710100
   170  C          0.43274870       0.56827800       0.98289900
   171  C          0.93274870       0.93172200       0.48289900
   172  C          0.56725130       0.43172200       0.01710100
   173  H          0.11312600       0.11292000       0.52926300
   174  H          0.38687400       0.61292000       0.97073700
   175  H          0.88687400       0.88708000       0.47073700
   176  H          0.61312600       0.38708000       0.02926300
   177  C          0.32188130       0.05932900       0.61197110
   178  C          0.17811870       0.55932900       0.88802890
   179  C          0.67811870       0.94067100       0.38802890
   180  C          0.82188130       0.44067100       0.11197110
   181  C          0.94805870       0.07268800       0.47210100
   182  C          0.55194130       0.57268800       0.02789900
   183  C          0.05194130       0.92731200       0.52789900
   184  C          0.44805870       0.42731200       0.97210100
   185  H          0.91274100       0.12008900       0.45309600
   186  H          0.58725900       0.62008900       0.04690400
   187  H          0.08725900       0.87991100       0.54690400
   188  H          0.41274100       0.37991100       0.95309600
   189  C          0.12544130      -0.00428800       0.54691100
   190  C          0.37455870       0.49571200       0.95308900
   191  C          0.87455870       0.00428800       0.45308900
   192  C          0.62544130       0.50428800       0.04691100
   193  C          0.24761130       0.99187200       0.59263100
   194  C          0.25238870       0.49187200       0.90736900
   195  C          0.75238870       0.00812800       0.40736900
   196  C          0.74761130       0.50812800       0.09263100
   197  C          0.30874140       0.92081100       0.62179110
   198  C          0.19125860       0.42081100       0.87820890
   199  C          0.69125860       0.07918900       0.37820890
   200  C          0.80874140       0.57918900       0.12179110
   201  C          0.51460110       0.03902800      -0.00593100
   202  C         -0.01460110       0.53902800       0.50593100
   203  C          0.48539890       0.96097200       0.00593100
   204  C          0.01460110       0.46097200       0.49406900
   205  C          0.56110120       0.06142900       0.91199100
   206  C          0.93889880       0.56142900       0.58800900
   207  C          0.43889880       0.93857100       0.08800900
   208  C          0.06110120       0.43857100       0.41199100
   209  C          0.57616130       0.00336100       0.84270100
   210  C          0.92383870       0.50336100       0.65729900
   211  C          0.42383870      -0.00336100       0.15729900
   212  C          0.07616130       0.49663900       0.34270100
   213  H          0.60544700       0.01719500       0.78823700
   214  H          0.89455300       0.51719500       0.71176300
   215  H          0.39455300       0.98280500       0.21176300
   216  H          0.10544700       0.48280500       0.28823700
   217  C          0.49731120       0.09501900       0.06353110
   218  C          0.00268880       0.59501900       0.43646890
   219  C          0.50268880       0.90498100       0.93646890
   220  C         -0.00268880       0.40498100       0.56353110
   221  C          0.52760140       0.17144900       0.04877130
   222  C          0.97239860       0.67144900       0.45122870
   223  C          0.47239860       0.82855100       0.95122870
   224  C          0.02760140       0.32855100       0.54877130
   225  H          0.51651300       0.20886800       0.09327600
   226  H          0.98348700       0.70886800       0.40672400
   227  H          0.48348700       0.79113200       0.90672400
   228  H          0.01651300       0.29113200       0.59327600
   229  C          0.54902130       0.92955900       0.85452110
   230  C          0.95097870       0.42955900       0.64547890
   231  C          0.45097870       0.07044100       0.14547890
   232  C          0.04902130       0.57044100       0.35452110
   233  H          0.56063500       0.89363500       0.80835700
   234  H          0.93936500       0.39363500       0.69164300
   235  H          0.43936500       0.10636500       0.19164300
   236  H          0.06063500       0.60636500       0.30835700
   237  C          0.57364140       0.19161100       0.96897130
   238  C          0.92635860       0.69161100       0.53102870
   239  C          0.42635860       0.80838900       0.03102870
   240  C          0.07364140       0.30838900       0.46897130
   241  H          0.59357700       0.24241300       0.96082300
   242  H          0.90642300       0.74241300       0.53917700
   243  H          0.40642300       0.75758700       0.03917700
   244  H          0.09357700       0.25758700       0.46082300
   245  C          0.59040130       0.13797900       0.90164130
   246  C          0.90959870       0.63797900       0.59835870
   247  C          0.40959870       0.86202100       0.09835870
   248  C          0.09040130       0.36202100       0.40164130
   249  H          0.62161500       0.15277100       0.84853500
   250  H          0.87838500       0.65277100       0.65146500
   251  H          0.37838500       0.84722900       0.15146500
   252  H          0.12161500       0.34722900       0.34853500
