data_LIRYIV
_symmetry_space_group_name_H-M    'P1'
_symmetry_Int_Tables_number       1
loop_
_symmetry_equiv_pos_site_id
_symmetry_equiv_pos_as_xyz
1 x,y,z
_cell_length_a                   10.14752
_cell_length_b                   18.46744
_cell_length_c                   14.42514
_cell_angle_alpha                90.0
_cell_angle_beta                 102.55701
_cell_angle_gamma                90.0
loop_
_atom_site_label
_atom_site_type_symbol
_atom_site_fract_x
_atom_site_fract_y
_atom_site_fract_z
     1  C          0.51262000       0.15972130       0.62315160
     2  C         -0.01262000       0.65972130       0.87684840
     3  C          0.48738000       0.84027870       0.37684840
     4  C          0.01262000       0.34027870       0.12315160
     5  C          0.34033000       0.32368160       0.55732000
     6  C          0.15967000       0.82368160       0.94268000
     7  C          0.65967000       0.67631840       0.44268000
     8  C          0.84033000       0.17631840       0.05732000
     9  C          0.39723000       0.38731170       0.53533000
    10  C          0.10277000       0.88731170       0.96467000
    11  C          0.60277000       0.61268830       0.46467000
    12  C          0.89723000       0.11268830       0.03533000
    13  C          0.53563000       0.39251160       0.54022000
    14  C          0.96437000       0.89251160       0.95978000
    15  C          0.46437000       0.60748840       0.45978000
    16  C          0.03563000       0.10748840       0.04022000
    17  C          0.62123000       0.33549150       0.56632000
    18  C          0.87877000       0.83549150       0.93368000
    19  C          0.37877000       0.66450850       0.43368000
    20  C          0.12123000       0.16450850       0.06632000
    21  C          0.56302000       0.27125130       0.58721170
    22  C          0.93698000       0.77125130       0.91278830
    23  C          0.43698000       0.72874870       0.41278830
    24  C          0.06302000       0.22874870       0.08721170
    25  C          0.42522000       0.26429130       0.58373180
    26  C          0.07478000       0.76429130       0.91626820
    27  C          0.57478000       0.73570870       0.41626820
    28  C          0.92522000       0.23570870       0.08373180
    29  C          0.53642000       0.08476130       0.65580170
    30  C          0.96358000       0.58476130       0.84419830
    31  C          0.46358000       0.91523870       0.34419830
    32  C          0.03642000       0.41523870       0.15580170
    33  C          0.44602000       0.02813130       0.62258180
    34  C          0.05398000       0.52813130       0.87741820
    35  C          0.55398000       0.97186870       0.37741820
    36  C          0.94602000       0.47186870       0.12258180
    37  C          0.47463000       0.95867850       0.65922000
    38  C          0.02537000       0.45867850       0.84078000
    39  C          0.52537000       0.04132150       0.34078000
    40  C          0.97463000       0.54132150       0.15922000
    41  C          0.59093000       0.94579820       0.72693000
    42  C          0.90907000       0.44579820       0.77307000
    43  C          0.40907000       0.05420180       0.27307000
    44  C          0.09093000       0.55420180       0.22693000
    45  C          0.68063000       0.00005170       0.75902000
    46  C          0.81937000       0.50005170       0.74098000
    47  C          0.31937000      -0.00005170       0.24098000
    48  C          0.18063000       0.49994830       0.25902000
    49  C          0.65323000       0.06867160       0.72372000
    50  C          0.84677000       0.56867160       0.77628000
    51  C          0.34677000       0.93132840       0.27628000
    52  C          0.15323000       0.43132840       0.22372000
    53  C          0.11522000       0.92082860       0.55474170
    54  C          0.38478000       0.42082860       0.94525830
    55  C          0.88478000       0.07917140       0.44525830
    56  C          0.61522000       0.57917140       0.05474170
    57  C          0.02242000       0.86476870       0.52259170
    58  C          0.47758000       0.36476870       0.97740830
    59  C          0.97758000       0.13523130       0.47740830
    60  C          0.52242000       0.63523130       0.02259170
    61  C          0.94147000       0.84010830       0.58292000
    62  C          0.55853000       0.34010830       0.91708000
    63  C          0.05853000       0.15989170       0.41708000
    64  C          0.44147000       0.65989170       0.08292000
    65  C          0.94937000       0.86998000       0.67142000
    66  C          0.55063000       0.36998000       0.82858000
    67  C          0.05063000       0.13002000       0.32858000
    68  C          0.44937000       0.63002000       0.17142000
    69  C          0.03863000       0.92468000       0.70132000
    70  C          0.46137000       0.42468000       0.79868000
    71  C          0.96137000       0.07532000       0.29868000
    72  C          0.53863000       0.57532000       0.20132000
    73  C          0.12093000       0.95024810       0.64432000
    74  C          0.37907000       0.45024810       0.85568000
    75  C          0.87907000       0.04975190       0.35568000
    76  C          0.62093000       0.54975190       0.14432000
    77  C          0.00562000       0.83235880       0.42801160
    78  C          0.49438000       0.33235880       0.07198840
    79  C         -0.00562000       0.16764120       0.57198840
    80  C          0.50562000       0.66764120       0.92801160
    81  C          0.08813000       0.76062850       0.22102000
    82  C          0.41187000       0.26062850       0.27898000
    83  C          0.91187000       0.23937150       0.77898000
    84  C          0.58813000       0.73937150       0.72102000
    85  C         -0.00113000       0.73156840       0.14492000
    86  C          0.50113000       0.23156840       0.35508000
    87  C          0.00113000       0.26843160       0.85508000
    88  C          0.49887000       0.76843160       0.64492000
    89  C          0.86087000       0.72725850       0.14282000
    90  C          0.63913000       0.22725850       0.35718000
    91  C          0.13913000       0.27274150       0.85718000
    92  C          0.36087000       0.77274150       0.64282000
    93  C          0.80907000       0.75092850       0.21672000
    94  C          0.69093000       0.25092850       0.28328000
    95  C          0.19093000       0.24907150       0.78328000
    96  C          0.30907000       0.74907150       0.71672000
    97  C          0.89828000       0.78121870       0.29422180
    98  C          0.60172000       0.28121870       0.20577820
    99  C          0.10172000       0.21878130       0.70577820
   100  C          0.39828000       0.71878130       0.79422180
   101  C          0.03722000       0.78616880       0.29694170
   102  C          0.46278000       0.28616880       0.20305830
   103  C          0.96278000       0.21383120       0.70305830
   104  C          0.53722000       0.71383120       0.79694170
   105  H          0.69530000       0.19091400       0.61921800
   106  H          0.80470000       0.69091400       0.88078200
   107  H          0.30470000       0.80908600       0.38078200
   108  H          0.19530000       0.30908600       0.11921800
   109  H          0.25030000       0.31891700       0.56720000
   110  H          0.24970000       0.81891700       0.93280000
   111  H          0.74970000       0.68108300       0.43280000
   112  H          0.75030000       0.18108300       0.06720000
   113  H          0.33330000       0.43081800       0.51120000
   114  H          0.16670000       0.93081800       0.98880000
   115  H          0.66670000       0.56918200       0.48880000
   116  H          0.83330000       0.06918200       0.01120000
   117  H          0.57830000       0.43321700       0.52620000
   118  H          0.92170000       0.93321700       0.97380000
   119  H          0.42170000       0.56678300       0.47380000
   120  H          0.07830000       0.06678300       0.02620000
   121  H          0.71430000       0.33961600       0.57220000
   122  H          0.78570000       0.83961600       0.92780000
   123  H          0.28570000       0.66038400       0.42780000
   124  H          0.21430000       0.16038400       0.07220000
   125  H          0.40930000       0.91758400       0.63320000
   126  H          0.09070000       0.41758400       0.86680000
   127  H          0.59070000       0.08241600       0.36680000
   128  H          0.90930000       0.58241600       0.13320000
   129  H          0.60330000       0.90058200       0.74920000
   130  H          0.89670000       0.40058200       0.75080000
   131  H          0.39670000       0.09941800       0.25080000
   132  H          0.10330000       0.59941800       0.24920000
   133  H          0.76730000       0.99118300       0.80620000
   134  H          0.73270000       0.49118300       0.69380000
   135  H          0.23270000       0.00881700       0.19380000
   136  H          0.26730000       0.50881700       0.30620000
   137  H          0.71230000       0.10721500       0.74241900
   138  H          0.78770000       0.60721500       0.75758100
   139  H          0.28770000       0.89278500       0.25758100
   140  H          0.21230000       0.39278500       0.24241900
   141  H          0.88470000       0.80068300       0.56320000
   142  H          0.61530000       0.30068300       0.93680000
   143  H          0.11530000       0.19931700       0.43680000
   144  H          0.38470000       0.69931700       0.06320000
   145  H          0.88570000       0.85418200       0.71220000
   146  H          0.61430000       0.35418200       0.78780000
   147  H          0.11430000       0.14581800       0.28780000
   148  H          0.38570000       0.64581800       0.21220000
   149  H          0.04530000       0.94518200       0.75830000
   150  H          0.45470000       0.44518200       0.74170000
   151  H          0.95470000       0.05481800       0.24170000
   152  H          0.54530000       0.55481800       0.25830000
   153  H          0.17930000       0.98668300       0.66520000
   154  H          0.32070000       0.48668300       0.83480000
   155  H          0.82070000       0.01331700       0.33480000
   156  H          0.67930000       0.51331700       0.16520000
   157  H          0.80470000       0.81958600       0.38941800
   158  H          0.69530000       0.31958600       0.11058200
   159  H          0.19530000       0.18041400       0.61058200
   160  H          0.30470000       0.68041400       0.88941800
   161  H          0.72070000       0.74548500       0.21741900
   162  H          0.77930000       0.24548500       0.28258100
   163  H          0.27930000       0.25451500       0.78258100
   164  H          0.22070000       0.75451500       0.71741900
   165  H          0.79970000       0.70678400       0.08620000
   166  H          0.70030000       0.20678400       0.41380000
   167  H          0.20030000       0.29321600       0.91380000
   168  H          0.29970000       0.79321600       0.58620000
   169  H          0.03030000       0.71108400       0.09820000
   170  H          0.46970000       0.21108400       0.40180000
   171  H          0.96970000       0.28891600       0.90180000
   172  H          0.53030000       0.78891600       0.59820000
   173  H          0.17530000       0.76098500       0.22521900
   174  H          0.32470000       0.26098500       0.27478100
   175  H          0.82470000       0.23901500       0.77478100
   176  H          0.67530000       0.73901500       0.72521900
   177  N          0.61603190       0.20323110       0.61253150
   178  N          0.88396810       0.70323110       0.88746850
   179  N          0.38396810       0.79676890       0.38746850
   180  N          0.11603190       0.29676890       0.11253150
   181  N          0.39554180       0.19401110       0.60614150
   182  N          0.10445820       0.69401110       0.89385850
   183  N          0.60445820       0.80598890       0.39385850
   184  N          0.89554180       0.30598890       0.10614150
   185  N          0.88205810       0.81066890       0.37821150
   186  N          0.61794190       0.31066890       0.12178850
   187  N          0.11794190       0.18933110       0.62178850
   188  N          0.38205810       0.68933110       0.87821150
   189  N          0.10192170       0.81835900       0.38228140
   190  N          0.39807830       0.31835900       0.11771860
   191  N          0.89807830       0.18164100       0.61771860
   192  N          0.60192170       0.68164100       0.88228140
   193  S          0.29730600       0.04847300       0.53424500
   194  S          0.20269400       0.54847300       0.96575500
   195  S          0.70269400       0.95152700       0.46575500
   196  S          0.79730600       0.45152700       0.03424500
   197  S          0.22248600       0.95113700       0.47976500
   198  S          0.27751400       0.45113700       0.02023500
   199  S          0.77751400       0.04886300       0.52023500
   200  S          0.72248600       0.54886300       0.97976500
   201  C          0.82647000       0.44834000       0.35194000
   202  C          0.67353000       0.94834000       0.14806000
   203  C          0.17353000       0.55166000       0.64806000
   204  C          0.32647000       0.05166000       0.85194000
   205  C          0.87564000       0.42892000       0.44903000
   206  C          0.62436000       0.92892000       0.05097000
   207  C          0.12436000       0.57108000       0.55097000
   208  C          0.37564000       0.07108000       0.94903000
   209  C          0.96905000       0.36943000       0.47245000
   210  C          0.53095000       0.86943000       0.02755000
   211  C          0.03095000       0.63057000       0.52755000
   212  C          0.46905000       0.13057000       0.97245000
   213  H          0.73040000       0.43600000       0.33630000
   214  H          0.76960000       0.93600000       0.16370000
   215  H          0.26960000       0.56400000       0.66370000
   216  H          0.23040000       0.06400000       0.83630000
   217  H          0.83810000       0.49990000       0.34410000
   218  H          0.66190000      -0.00010000       0.15590000
   219  H          0.16190000       0.50010000       0.65590000
   220  H          0.33810000       0.00010000       0.84410000
   221  H          0.87330000       0.42030000       0.31250000
   222  H          0.62670000       0.92030000       0.18750000
   223  H          0.12670000       0.57970000       0.68750000
   224  H          0.37330000       0.07970000       0.81250000
   225  H          0.01220000       0.37120000       0.53790000
   226  H          0.48780000       0.87120000       0.96210000
   227  H         -0.01220000       0.62880000       0.46210000
   228  H          0.51220000       0.12880000       0.03790000
   229  H          0.92070000       0.32360000       0.45840000
   230  H          0.57930000       0.82360000       0.04160000
   231  H          0.07930000       0.67640000       0.54160000
   232  H          0.42070000       0.17640000       0.95840000
   233  H          0.03380000       0.37220000       0.43170000
   234  H          0.46620000       0.87220000       0.06830000
   235  H          0.96620000       0.62780000       0.56830000
   236  H          0.53380000       0.12780000       0.93170000
   237  O          0.83864000       0.46162000       0.51113000
   238  O          0.66136000       0.96162000       0.98887000
   239  O          0.16136000       0.53838000       0.48887000
   240  O          0.33864000       0.03838000       0.01113000
