data_LISFOJ
_symmetry_space_group_name_H-M    'P1'
_symmetry_Int_Tables_number       1
loop_
_symmetry_equiv_pos_site_id
_symmetry_equiv_pos_as_xyz
1 x,y,z
_cell_length_a                   7.981616
_cell_length_b                   11.7932
_cell_length_c                   13.5013
_cell_angle_alpha                112.4093
_cell_angle_beta                 106.6163
_cell_angle_gamma                93.8153
loop_
_atom_site_label
_atom_site_type_symbol
_atom_site_fract_x
_atom_site_fract_y
_atom_site_fract_z
     1  S          0.36313600       0.33728500       0.51708400
     2  S          0.63686400       0.66271500       0.48291600
     3  Cl         0.56158200       0.82161500       0.83661600
     4  Cl         0.43841800       0.17838500       0.16338400
     5  Cl         0.09511100       0.76852600       0.19372700
     6  Cl         0.90488900       0.23147400       0.80627300
     7  N          0.12142000       0.26485140       0.32340130
     8  N          0.87858000       0.73514860       0.67659870
     9  C          0.03812000       0.27986170       0.23395150
    10  C          0.96188000       0.72013830       0.76604850
    11  C          0.69718000       0.95519820       0.95262850
    12  C          0.30282000       0.04480180       0.04737150
    13  O          0.48140190       0.45412130       0.59548110
    14  O          0.51859810       0.54587870       0.40451890
    15  N          0.23992000       0.36959160       0.41402140
    16  N          0.76008000       0.63040840       0.58597860
    17  C          0.05412000       0.40175160       0.22434150
    18  C          0.94588000       0.59824840       0.77565850
    19  C          0.91868000       0.16683160       0.13572150
    20  C          0.08132000       0.83316840       0.86427850
    21  O          0.24372000       0.27968150       0.55257120
    22  O          0.75628000       0.72031850       0.44742880
    23  C          0.48802000       0.22773170       0.46114150
    24  C          0.51198000       0.77226830       0.53885850
    25  C          0.79798000       0.17569180       0.04295160
    26  C          0.20202000       0.82430820       0.95704840
    27  H          0.79120000       0.25400000       0.04260000
    28  H          0.20880000       0.74600000       0.95740000
    29  C          0.92587000       0.04861180       0.13392160
    30  C          0.07413000       0.95138820       0.86607840
    31  H          0.00680000       0.04070000       0.19490000
    32  H         -0.00680000       0.95930000       0.80510000
    33  C          0.41953000       0.10134190       0.41764180
    34  C          0.58047000       0.89865810       0.58235820
    35  H          0.30560000       0.07380000       0.41480000
    36  H          0.69440000       0.92620000       0.58520000
    37  C          0.81537000       0.94295820       0.04362160
    38  C          0.18463000       0.05704180       0.95637840
    39  H          0.82020000       0.86450000       0.04390000
    40  H          0.17980000       0.13550000       0.95610000
    41  C          0.00353000       0.61234190       0.28078180
    42  C         -0.00353000       0.38765810       0.71921820
    43  H          0.96050000       0.67760000       0.32470000
    44  H          0.03950000       0.32240000       0.67530000
    45  C          0.68777000       0.07034180       0.95130840
    46  C          0.31223000       0.92965820       0.04869160
    47  H          0.60820000       0.07740000       0.88940000
    48  H          0.39180000       0.92260000       0.11060000
    49  C         -0.00883000       0.50001190       0.28972170
    50  C          0.00883000       0.49998810       0.71027830
    51  H          0.93990000       0.48970000       0.34030000
    52  H          0.06010000       0.51030000       0.65970000
    53  C          0.07963000       0.62677170       0.20662170
    54  C          0.92037000       0.37322830       0.79337830
    55  C          0.12993000       0.41921180       0.14985180
    56  C          0.87007000       0.58078820       0.85014820
    57  H          0.17250000       0.35420000       0.10530000
    58  H          0.82750000       0.64580000       0.89470000
    59  C          0.69183000       0.05502000       0.38212170
    60  C          0.30817000       0.94498000       0.61787830
    61  C          0.14313000       0.53180190       0.14062190
    62  C          0.85687000       0.46819810       0.85937810
    63  H          0.19440000       0.54310000       0.09040000
    64  H          0.80560000       0.45690000       0.90960000
    65  C          0.52183000       0.01642000       0.37853190
    66  C          0.47817000      -0.01642000       0.62146810
    67  H          0.47550000       0.93120000       0.34910000
    68  H          0.52450000       0.06880000       0.65090000
    69  C          0.65473000       0.26822000       0.46159180
    70  C          0.34527000       0.73178000       0.53840820
    71  H          0.69900000       0.35320000       0.48800000
    72  H          0.30100000       0.64680000       0.51200000
    73  C          0.75523000       0.18132000       0.42240190
    74  C          0.24477000       0.81868000       0.57759810
    75  H          0.86780000       0.20870000       0.42330000
    76  H          0.13220000       0.79130000       0.57670000
    77  C          0.80424000       0.96087000       0.34342000
    78  C          0.19576000       0.03913000       0.65658000
    79  H          0.75690000       0.91590000       0.26210000
    80  H          0.24310000       0.08410000       0.73790000
    81  H          0.80280000       0.90320000       0.37790000
    82  H          0.19720000       0.09680000       0.62210000
    83  H          0.92460000       0.00340000       0.36570000
    84  H          0.07540000      -0.00340000       0.63430000
    85  H          0.30030000       0.41531900       0.39921700
    86  H          0.69970000       0.58468100       0.60078300
    87  C          0.47104000       0.37663000       0.97704000
    88  C          0.52896000       0.62337000       0.02296000
    89  H          0.45110000       0.29180000       0.96090000
    90  H          0.54890000       0.70820000       0.03910000
    91  C          0.54354000       0.46214000       0.08554000
    92  C          0.45646000       0.53786000       0.91446000
    93  H          0.57320000       0.43640000       0.14430000
    94  H          0.42680000       0.56360000       0.85570000
    95  C          0.42654000       0.41403000       0.89073000
    96  C          0.57346000       0.58597000       0.10927000
    97  H          0.37590000       0.35490000       0.81570000
    98  H          0.62410000       0.64510000       0.18430000
