data_LISQOW
_symmetry_space_group_name_H-M    'P1'
_symmetry_Int_Tables_number       1
loop_
_symmetry_equiv_pos_site_id
_symmetry_equiv_pos_as_xyz
1 x,y,z
_cell_length_a                   5.23735
_cell_length_b                   10.948511
_cell_length_c                   15.537016
_cell_angle_alpha                83.0006
_cell_angle_beta                 88.9826
_cell_angle_gamma                81.8346
loop_
_atom_site_label
_atom_site_type_symbol
_atom_site_fract_x
_atom_site_fract_y
_atom_site_fract_z
     1  H          0.91840000       0.64771800       0.23001300
     2  H          0.08160000       0.35228200       0.76998700
     3  H          0.28640000       0.66820000       0.04451300
     4  H          0.71360000       0.33180000       0.95548700
     5  H          0.58540000       0.66841800       0.12991200
     6  H          0.41460000       0.33158200       0.87008800
     7  H          0.09540000       0.60111800       0.00421300
     8  H          0.90460000       0.39888200      -0.00421300
     9  H          0.06040000       0.45520000       0.30921400
    10  H          0.93960000       0.54480000       0.69078600
    11  H          0.85640000       0.28051900       0.29121300
    12  H          0.14360000       0.71948100       0.70878700
    13  H          0.38760000       0.29030000       0.15151900
    14  H          0.61240000       0.70970000       0.84848100
    15  O          0.21122000       0.39593100       0.07576700
    16  O          0.78878000       0.60406900       0.92423300
    17  N          0.22553000       0.59973120       0.03893900
    18  N          0.77447000       0.40026880       0.96106100
    19  O          0.49722000       0.26619100       0.19053800
    20  O          0.50278000       0.73380900       0.80946200
    21  C          0.60273000       0.37008140       0.19946100
    22  C          0.39727000       0.62991860       0.80053900
    23  C          0.51893000       0.48524130       0.15002900
    24  C          0.48107000       0.51475870       0.84997100
    25  C          0.64013000       0.58761140       0.16308100
    26  C          0.35987000       0.41238860       0.83691900
    27  C          0.80233000       0.36033150       0.25904100
    28  C          0.19767000       0.63966850       0.74095900
    29  C          0.30813000       0.49227130       0.08575900
    30  C          0.69187000       0.50772870       0.91424100
    31  C          0.83743000       0.57717160       0.22258110
    32  C          0.16257000       0.42282840       0.77741890
    33  C          0.91823000       0.46269160       0.27041100
    34  C          0.08177000       0.53730840       0.72958900
    35  H          0.15230000       0.10861600       0.18471200
    36  H          0.84770000       0.89138400       0.81528800
    37  H          0.37860000       0.72578200       0.31511300
    38  H          0.62140000       0.27421800       0.68488700
    39  H          0.03040000       0.93568200       0.28261300
    40  H          0.96960000       0.06431800       0.71738700
    41  H          0.83860000       0.93758100       0.41791300
    42  H          0.16140000       0.06241900       0.58208700
    43  H          0.33340000       0.08851900       0.04091300
    44  H          0.66660000       0.91148100       0.95908700
    45  H          0.77060000       0.05171800       0.27771200
    46  H          0.22940000       0.94828200       0.72228800
    47  H          0.44860000       0.70988200       0.57731300
    48  H          0.55140000       0.29011800       0.42268700
    49  H          0.71660000       0.82780000       0.64171500
    50  H          0.28340000       0.17220000       0.35828500
    51  H          0.97050000       0.84980000       0.58071400
    52  H          0.02950000       0.15020000       0.41928600
    53  H          0.74360000       0.96480000       0.58351400
    54  H          0.25640000       0.03520000       0.41648600
    55  H          0.93860000       0.18020000       0.11341400
    56  H          0.06140000       0.81980000       0.88658600
    57  H          0.04450000       0.63080000       0.42451700
    58  H          0.95550000       0.36920000       0.57548300
    59  H          0.15750000       0.58770000       0.52011900
    60  H          0.84250000       0.41230000       0.47988100
    61  H          0.27950000       0.52780000       0.44191600
    62  H          0.72050000       0.47220000       0.55808400
    63  O          0.37032000       0.85501900       0.03357700
    64  O          0.62968000       0.14498100       0.96642300
    65  O          0.66878000       0.88286890       0.26875700
    66  O          0.33122000       0.11713110       0.73124300
    67  O          0.05502000       0.88577900       0.13143700
    68  O          0.94498000       0.11422100       0.86856300
    69  C          0.49187000       0.74332860       0.51829100
    70  C          0.50813000       0.25667140       0.48170900
    71  C          0.44607000       0.75282860       0.36410100
    72  C          0.55393000       0.24717140       0.63589900
    73  C          0.61757000       0.84027860       0.35325100
    74  C          0.38243000       0.15972140       0.64674900
    75  C          0.72417000       0.87956860       0.42442110
    76  C          0.27583000       0.12043140       0.57557890
    77  C          0.89427000      -0.00531140       0.16030100
    78  C          0.10573000       0.00531140       0.83969900
    79  C          0.23103000       0.92677860       0.07429100
    80  C          0.76897000       0.07322140       0.92570900
    81  C          0.84877000       0.97062850       0.25600100
    82  C          0.15123000       0.02937150       0.74399900
    83  C          0.38307000       0.70357860       0.44707100
    84  C          0.61693000       0.29642140       0.55292900
    85  N          0.22073000       0.04999120       0.07021900
    86  N          0.77927000       0.95000880       0.92978100
    87  C          0.05163000       0.10168150       0.13559110
    88  C          0.94837000       0.89831850       0.86440890
    89  C          0.78206000       0.87142830       0.58532120
    90  C          0.21794000       0.12857170       0.41467880
    91  C          0.20276000       0.60682840       0.45995120
    92  C          0.79724000       0.39317160       0.54004880
    93  C          0.66127000       0.83050860       0.50789100
    94  C          0.33873000       0.16949140       0.49210900
    95  H          0.71560000       0.00781800       0.12941300
    96  H          0.28440000      -0.00781800       0.87058700
