data_LITDIF
_symmetry_space_group_name_H-M    'P1'
_symmetry_Int_Tables_number       1
loop_
_symmetry_equiv_pos_site_id
_symmetry_equiv_pos_as_xyz
1 x,y,z
_cell_length_a                   7.28447
_cell_length_b                   13.339613
_cell_length_c                   14.611215
_cell_angle_alpha                87.5882
_cell_angle_beta                 77.9872
_cell_angle_gamma                84.3362
loop_
_atom_site_label
_atom_site_type_symbol
_atom_site_fract_x
_atom_site_fract_y
_atom_site_fract_z
     1  S          0.50601600       0.49364300       0.15562300
     2  S          0.49398400       0.50635700       0.84437700
     3  S          0.33434800       0.79320300       0.12939300
     4  S          0.66565200       0.20679700       0.87060700
     5  C          0.45142000       0.74593110       0.02148100
     6  C          0.54858000       0.25406890       0.97851900
     7  N          0.56272000       0.92956100       0.77852100
     8  N          0.43728000       0.07043900       0.22147900
     9  C          0.27522000       0.51606110       0.43323100
    10  C          0.72478000       0.48393890       0.56676900
    11  H          0.20940000       0.57950000       0.43430000
    12  H          0.79060000       0.42050000       0.56570000
    13  N          0.33092000       0.63680100       0.26606900
    14  N          0.66908000       0.36319900       0.73393100
    15  N          0.36157170       0.36715900       0.51347800
    16  N          0.63842830       0.63284100       0.48652200
    17  C          0.46632000       0.61128110       0.10808100
    18  C          0.53368000       0.38871890       0.89191900
    19  N          0.51212000       0.64993100       0.01993900
    20  N          0.48788000       0.35006900       0.98006100
    21  O          0.01132000       0.13405120       0.72088110
    22  O         -0.01132000       0.86594880       0.27911890
    23  H          0.01690000       0.09270000       0.76360000
    24  H          0.98310000       0.90730000       0.23640000
    25  C          0.37202000       0.67539110       0.17757100
    26  C          0.62798000       0.32460890       0.82242900
    27  C          0.39742000       0.54157110       0.26407100
    28  C          0.60258000       0.45842890       0.73592900
    29  C          0.26512000       0.45879110       0.51402100
    30  C          0.73488000       0.54120890       0.48597900
    31  H          0.19100000       0.48340000       0.56970000
    32  H          0.80900000       0.51660000       0.43030000
    33  C          0.46902000       0.32965110       0.43407110
    34  C          0.53098000       0.67034890       0.56592890
    35  H          0.53420000       0.26620000       0.43520000
    36  H          0.46580000       0.73380000       0.56480000
    37  C          0.60852000       0.77443120       0.85830890
    38  C          0.39148000       0.22556880       0.14169110
    39  H          0.66550000       0.70890000       0.85840000
    40  H          0.33450000       0.29110000       0.14160000
    41  C          0.38462000       0.47885110       0.34954100
    42  C          0.61538000       0.52114890       0.65045900
    43  C          0.34662000       0.30667120       0.60221100
    44  C          0.65338000       0.69332880       0.39778900
    45  H          0.34550000       0.35060000       0.65360000
    46  H          0.65450000       0.64940000       0.34640000
    47  H          0.45530000       0.25750000       0.59770000
    48  H          0.54470000       0.74250000       0.40230000
    49  C          0.48362000       0.38400110       0.35103100
    50  C          0.51638000       0.61599890       0.64896900
    51  H          0.55900000       0.35770000       0.29640000
    52  H          0.44100000       0.64230000       0.70360000
    53  C          0.39712000       0.90866120       0.93428890
    54  C          0.60288000       0.09133880       0.06571110
    55  H          0.31190000       0.93480000       0.98610000
    56  H          0.68810000       0.06520000       0.01390000
    57  C          0.48402000       0.81129110       0.93784900
    58  C          0.51598000       0.18870890       0.06215100
    59  C          0.43852000       0.96578120       0.85347890
    60  C          0.56148000       0.03421880       0.14652110
    61  H          0.37940000       0.03060000       0.85070000
    62  H          0.62060000       0.96940000       0.14930000
    63  C          0.64682000       0.83504120       0.77996890
    64  C          0.35318000       0.16495880       0.22003110
    65  H          0.73170000       0.81070000       0.72720000
    66  H          0.26830000       0.18930000       0.27280000
    67  O          0.27372000       0.18020140       0.75597110
    68  O          0.72628000       0.81979860       0.24402890
    69  C          0.16953000       0.25345130       0.62129120
    70  C          0.83047000       0.74654870       0.37870880
    71  H          0.06060000       0.30280000       0.63020000
    72  H          0.93940000       0.69720000       0.36980000
    73  H          0.16630000       0.21340000       0.56790000
    74  H          0.83370000       0.78660000       0.43210000
    75  C          0.70283000       0.03018140       0.52853880
    76  C          0.29717000       0.96981860       0.47146120
    77  O          0.61703000       0.11007120       0.53411890
    78  O          0.38297000       0.88992880       0.46588110
    79  O          0.80693000      -0.00376860       0.45123890
    80  O          0.19307000       0.00376860       0.54876110
    81  H          0.81010000       0.04030000       0.41030000
    82  H          0.18990000       0.95970000       0.58970000
    83  C          0.16033000       0.18645130       0.70692120
    84  C          0.83967000       0.81354870       0.29307880
    85  C          0.61364000      -0.00082840       0.69687860
    86  C          0.38636000       0.00082840       0.30312140
    87  H          0.50120000       0.04200000       0.69050000
    88  H          0.49880000       0.95800000       0.30950000
    89  H          0.70330000       0.04240000       0.71080000
    90  H          0.29670000       0.95760000       0.28920000
    91  C          0.69254000       0.95384170       0.60813860
    92  C          0.30746000       0.04615830       0.39186140
    93  H          0.61570000       0.90150000       0.59810000
    94  H          0.38430000       0.09850000       0.40190000
    95  H          0.81810000       0.92260000       0.60900000
    96  H          0.18190000       0.07740000       0.39100000
    97  Cl         0.95093700       0.97122300       0.86971700
    98  Cl         0.04906300       0.02877700       0.13028300
    99  O          0.92363180       0.60710100       0.77804200
   100  O          0.07636820       0.39289900       0.22195800
   101  H          0.95570000       0.62050000       0.72210000
   102  H          0.04430000       0.37950000       0.27790000
   103  O          0.95502000       0.77155900       0.97165100
   104  O          0.04498000       0.22844100       0.02834900
   105  O          0.17692190       0.71263100       0.85148900
   106  O          0.82307810       0.28736900       0.14851100
   107  C          0.00042000       0.41977110       0.94276900
   108  C         -0.00042000       0.58022890       0.05723100
   109  H          0.00190000       0.36580000       0.90430000
   110  H         -0.00190000       0.63420000       0.09570000
   111  C          0.05862000       0.69959110       0.92080890
   112  C          0.94138000       0.30040890       0.07919110
   113  C          0.01772000       0.51600110       0.90370900
   114  C          0.98228000       0.48399890       0.09629100
   115  C          0.01922000       0.59675100       0.96136900
   116  C          0.98078000       0.40324900       0.03863100
   117  C          0.03002000       0.52891110       0.80007900
   118  C          0.96998000       0.47108890       0.19992100
   119  O          0.12343000       0.47105110       0.74468100
   120  O          0.87657000       0.52894890       0.25531900
   121  H          0.97340000       0.82520000       0.94680000
   122  H          0.02660000       0.17480000       0.05320000
   123  Cl         0.01115600       0.69713300       0.59178300
   124  Cl        -0.01115600       0.30286700       0.40821700
   125  O          0.19763000       0.86437130       0.68048100
   126  O          0.80237000       0.13562870       0.31951900
   127  H          0.14380000       0.88270000       0.73540000
   128  H          0.85620000       0.11730000       0.26460000
   129  H          0.14030000       0.81790000       0.66410000
   130  H          0.85970000       0.18210000       0.33590000
