data_LITYET
_symmetry_space_group_name_H-M    'P1'
_symmetry_Int_Tables_number       1
loop_
_symmetry_equiv_pos_site_id
_symmetry_equiv_pos_as_xyz
1 x,y,z
_cell_length_a                   21.069519
_cell_length_b                   12.655312
_cell_length_c                   7.41417
_cell_angle_alpha                90.0
_cell_angle_beta                 90.0
_cell_angle_gamma                90.0
loop_
_atom_site_label
_atom_site_type_symbol
_atom_site_fract_x
_atom_site_fract_y
_atom_site_fract_z
     1  Br         0.40492113       0.90300300       0.38691600
     2  Br         0.59507887       0.09699700       0.88691600
     3  Br         0.09507887       0.40300300       0.88691600
     4  Br         0.90492113       0.59699700       0.38691600
     5  S          0.70427200       0.81550300       0.42664700
     6  S          0.29572800       0.18449700       0.92664700
     7  S          0.79572800       0.31550300       0.92664700
     8  S          0.20427200       0.68449700       0.42664700
     9  O          0.71831800       0.75539120       0.26332000
    10  O          0.28168200       0.24460880       0.76332000
    11  O          0.78168200       0.25539120       0.76332000
    12  O          0.21831800       0.74460880       0.26332000
    13  C          0.62196900       0.84169130       0.42113000
    14  C          0.37803100       0.15830870       0.92113000
    15  C          0.87803100       0.34169130       0.92113000
    16  C          0.12196900       0.65830870       0.42113000
    17  O          0.71553800       0.75541120       0.59032000
    18  O          0.28446200       0.24458880       0.09032000
    19  O          0.78446200       0.25541120       0.09032000
    20  O          0.21553800       0.74458880       0.59032000
    21  C          0.57969120       0.77272000       0.50354000
    22  C          0.42030880       0.22728000       0.00354000
    23  C          0.92030880       0.27272000       0.00354000
    24  C          0.07969120       0.72728000       0.50354000
    25  H          0.59520000       0.71220000       0.56540000
    26  H          0.40480000       0.28780000       0.06540000
    27  H          0.90480000       0.21220000       0.06540000
    28  H          0.09520000       0.78780000       0.56540000
    29  O          0.73546700       0.91811900       0.42782000
    30  O          0.26453300       0.08188100       0.92782000
    31  O          0.76453300       0.41811900       0.92782000
    32  O          0.23546700       0.58188100       0.42782000
    33  C          0.51516130       0.79182000       0.49564000
    34  C          0.48483870       0.20818000      -0.00436000
    35  C          0.98483870       0.29182000      -0.00436000
    36  C          0.01516130       0.70818000       0.49564000
    37  H          0.48610000       0.74560000       0.55370000
    38  H          0.51390000       0.25440000       0.05370000
    39  H          0.01390000       0.24560000       0.05370000
    40  H          0.98610000       0.75440000       0.55370000
    41  C          0.49357110       0.87862000       0.40254000
    42  C          0.50642890       0.12138000       0.90254000
    43  C          0.00642890       0.37862000       0.90254000
    44  C         -0.00642890       0.62138000       0.40254000
    45  C          0.53466130       0.94868190       0.32054000
    46  C          0.46533870       0.05131810       0.82054000
    47  C          0.96533870       0.44868190       0.82054000
    48  C          0.03466130       0.55131810       0.32054000
    49  H          0.51880000       0.00880000       0.25840000
    50  H          0.48120000      -0.00880000       0.75840000
    51  H          0.98120000       0.50880000       0.75840000
    52  H          0.01880000       0.49120000       0.25840000
    53  C          0.59921120       0.93021170       0.33014000
    54  C          0.40078880       0.06978830       0.83014000
    55  C          0.90078880       0.43021170       0.83014000
    56  C          0.09921120       0.56978830       0.33014000
    57  H          0.62810000       0.97790000       0.27450000
    58  H          0.37190000       0.02210000       0.77450000
    59  H          0.87190000       0.47790000       0.77450000
    60  H          0.12810000       0.52210000       0.27450000
    61  N          0.74811100       0.53073150       0.58273000
    62  N          0.25188900       0.46926850       0.08273000
    63  N          0.75188900       0.03073150       0.08273000
    64  N          0.24811100       0.96926850       0.58273000
    65  H          0.74990000       0.49550000       0.68490000
    66  H          0.25010000       0.50450000       0.18490000
    67  H          0.75010000      -0.00450000       0.18490000
    68  H          0.24990000       0.00450000       0.68490000
    69  H          0.74030000       0.59900000       0.58350000
    70  H          0.25970000       0.40100000       0.08350000
    71  H          0.75970000       0.09900000       0.08350000
    72  H          0.24030000       0.90100000       0.58350000
    73  N          0.75461100       0.53403150       0.27292000
    74  N          0.24538900       0.46596850       0.77292000
    75  N          0.74538900       0.03403150       0.77292000
    76  N          0.25461100       0.96596850       0.27292000
    77  H          0.76070000       0.50090000       0.17000000
    78  H          0.23930000       0.49910000       0.67000000
    79  H          0.73930000       0.00090000       0.67000000
    80  H          0.26070000      -0.00090000       0.17000000
    81  H          0.74680000       0.60230000       0.27350000
    82  H          0.25320000       0.39770000       0.77350000
    83  H          0.75320000       0.10230000       0.77350000
    84  H          0.24680000       0.89770000       0.27350000
    85  N          0.76902900       0.37821110       0.42703000
    86  N          0.23097100       0.62178890       0.92703000
    87  N          0.73097100       0.87821110       0.92703000
    88  N          0.26902900       0.12178890       0.42703000
    89  H          0.77070000       0.34320000       0.52940000
    90  H          0.22930000       0.65680000       0.02940000
    91  H          0.72930000       0.84320000       0.02940000
    92  H          0.27070000       0.15680000       0.52940000
    93  H          0.77510000       0.34490000       0.32420000
    94  H          0.22490000       0.65510000       0.82420000
    95  H          0.72490000       0.84490000       0.82420000
    96  H          0.27510000       0.15510000       0.32420000
    97  C          0.75727900       0.48091130       0.42743000
    98  C          0.24272100       0.51908870       0.92743000
    99  C          0.74272100       0.98091130       0.92743000
   100  C          0.25727900       0.01908870       0.42743000
   101  N          0.41958800       0.44260140       0.38053000
   102  N          0.58041200       0.55739860       0.88053000
   103  N          0.08041200       0.94260140       0.88053000
   104  N          0.91958800       0.05739860       0.38053000
   105  C          0.47528100       0.38765150       0.38293000
   106  C          0.52471900       0.61234850       0.88293000
   107  C          0.02471900       0.88765150       0.88293000
   108  C          0.97528100       0.11234850       0.38293000
   109  N          0.69349900       0.16299120       0.40954000
   110  N          0.30650100       0.83700880       0.90954000
   111  N          0.80650100       0.66299120       0.90954000
   112  N          0.19349900       0.33700880       0.40954000
   113  C          0.53129110       0.42736160       0.30263000
   114  C          0.46870890       0.57263840       0.80263000
   115  C          0.96870890       0.92736160       0.80263000
   116  C          0.03129110       0.07263840       0.30263000
   117  H          0.53040000       0.49410000       0.24390000
   118  H          0.46960000       0.50590000       0.74390000
   119  H          0.96960000      -0.00590000       0.74390000
   120  H          0.03040000       0.00590000       0.24390000
   121  C          0.58705110       0.37114170       0.30803000
   122  C          0.41294890       0.62885830       0.80803000
   123  C          0.91294890       0.87114170       0.80803000
   124  C          0.08705110       0.12885830       0.30803000
   125  H          0.62410000       0.39990000       0.25400000
   126  H          0.37590000       0.60010000       0.75400000
   127  H          0.87590000       0.89990000       0.75400000
   128  H          0.12410000       0.10010000       0.25400000
   129  C          0.59008900       0.27214150       0.39203000
   130  C          0.40991100       0.72785850       0.89203000
   131  C          0.90991100       0.77214150       0.89203000
   132  C          0.09008900       0.22785850       0.39203000
   133  C          0.53491110       0.23204160       0.47043000
   134  C          0.46508890       0.76795840       0.97043000
   135  C          0.96508890       0.73204160       0.97043000
   136  C          0.03491110       0.26795840       0.47043000
   137  H          0.53610000       0.16490000       0.52760000
   138  H          0.46390000       0.83510000       0.02760000
   139  H          0.96390000       0.66490000       0.02760000
   140  H          0.03610000       0.33510000       0.52760000
   141  C          0.47899110       0.28722170       0.46683000
   142  C          0.52100890       0.71277830       0.96683000
   143  C          0.02100890       0.78722170       0.96683000
   144  C          0.97899110       0.21277830       0.46683000
   145  H          0.44220000       0.25780000       0.52120000
   146  H          0.55780000       0.74220000       0.02120000
   147  H          0.05780000       0.75780000       0.02120000
   148  H          0.94220000       0.24220000       0.52120000
   149  C          0.36248120       0.39785190       0.46144000
   150  C          0.63751880       0.60214810       0.96144000
   151  C          0.13751880       0.89785190       0.96144000
   152  C          0.86248120       0.10214810       0.46144000
   153  H          0.35110000       0.33250000       0.39830000
   154  H          0.64890000       0.66750000       0.89830000
   155  H          0.14890000       0.83250000       0.89830000
   156  H          0.85110000       0.16750000       0.39830000
   157  H          0.32760000       0.44860000       0.45130000
   158  H          0.67240000       0.55140000       0.95130000
   159  H          0.17240000       0.94860000       0.95130000
   160  H          0.82760000       0.05140000       0.45130000
   161  H          0.37040000       0.38240000       0.58890000
   162  H          0.62960000       0.61760000       0.08890000
   163  H          0.12960000       0.88240000       0.08890000
   164  H          0.87040000       0.11760000       0.58890000
   165  C          0.41492130       0.54512000       0.29614000
   166  C          0.58507870       0.45488000       0.79614000
   167  C          0.08507870       0.04512000       0.79614000
   168  C          0.91492130       0.95488000       0.29614000
   169  H          0.44670000       0.59260000       0.34850000
   170  H          0.55330000       0.40740000       0.84850000
   171  H          0.05330000       0.09260000       0.84850000
   172  H          0.94670000       0.90740000       0.34850000
   173  H          0.37240000       0.57420000       0.31630000
   174  H          0.62760000       0.42580000       0.81630000
   175  H          0.12760000       0.07420000       0.81630000
   176  H          0.87240000       0.92580000       0.31630000
   177  H          0.42250000       0.53810000       0.16630000
   178  H          0.57750000       0.46190000       0.66630000
   179  H          0.07750000       0.03810000       0.66630000
   180  H          0.92250000       0.96190000       0.16630000
   181  C          0.64795100       0.21223150       0.40003000
   182  C          0.35204900       0.78776850       0.90003000
   183  C          0.85204900       0.71223150       0.90003000
   184  C          0.14795100       0.28776850       0.40003000
