data_LITYOD
_symmetry_space_group_name_H-M    'P1'
_symmetry_Int_Tables_number       1
loop_
_symmetry_equiv_pos_site_id
_symmetry_equiv_pos_as_xyz
1 x,y,z
_cell_length_a                   7.468815
_cell_length_b                   12.3162
_cell_length_c                   20.9484
_cell_angle_alpha                90.0
_cell_angle_beta                 90.0
_cell_angle_gamma                90.0
loop_
_atom_site_label
_atom_site_type_symbol
_atom_site_fract_x
_atom_site_fract_y
_atom_site_fract_z
     1  Cl         0.12754130       0.57722600       0.08156300
     2  Cl         0.37245870       0.42277400       0.58156300
     3  Cl         0.62754130       0.92277400       0.91843700
     4  Cl         0.87245870       0.07722600       0.41843700
     5  S          0.24306900       0.72658400       0.79928200
     6  S          0.25693100       0.27341600       0.29928200
     7  S          0.74306900       0.77341600       0.20071800
     8  S          0.75693100       0.22658400       0.70071800
     9  O          0.24753000       0.84468110       0.79867700
    10  O          0.25247000       0.15531890       0.29867700
    11  O          0.74753000       0.65531890       0.20132300
    12  O          0.75247000       0.34468110       0.70132300
    13  C          0.21513000       0.68665170       0.87995100
    14  C          0.28487000       0.31334830       0.37995100
    15  C          0.71513000       0.81334830       0.12004900
    16  C          0.78487000       0.18665170       0.62004900
    17  O          0.08922000       0.68294130       0.76458700
    18  O          0.41078000       0.31705870       0.26458700
    19  O          0.58922000       0.81705870       0.23541300
    20  O          0.91078000       0.18294130       0.73541300
    21  C          0.11564000       0.75058190       0.92133120
    22  C          0.38436000       0.24941810       0.42133120
    23  C          0.61564000       0.74941810       0.07866880
    24  C          0.88436000       0.25058190       0.57866880
    25  H          0.06610000       0.81730000       0.90690000
    26  H          0.43390000       0.18270000       0.40690000
    27  H          0.56610000       0.68270000       0.09310000
    28  H          0.93390000       0.31730000       0.59310000
    29  O          0.40922000       0.67689120       0.77799700
    30  O          0.09078000       0.32310880       0.27799700
    31  O          0.90922000       0.82310880       0.22200300
    32  O          0.59078000       0.17689120       0.72200300
    33  C          0.08844000       0.71692000       0.98378120
    34  C          0.41156000       0.28308000       0.48378120
    35  C          0.58844000       0.78308000       0.01621880
    36  C          0.91156000       0.21692000       0.51621880
    37  H          0.02080000       0.76020000       0.01250000
    38  H          0.47920000       0.23980000       0.51250000
    39  H          0.52080000       0.73980000       0.98750000
    40  H          0.97920000       0.26020000       0.48750000
    41  C          0.16054000       0.62022000       0.00329110
    42  C          0.33946000       0.37978000       0.50329110
    43  C          0.66054000       0.87978000      -0.00329110
    44  C          0.83946000       0.12022000       0.49670890
    45  C          0.25954000       0.55555180       0.96247110
    46  C          0.24046000       0.44444820       0.46247110
    47  C          0.75954000       0.94444820       0.03752890
    48  C          0.74046000       0.05555180       0.53752890
    49  H          0.30900000       0.48890000       0.97700000
    50  H          0.19100000       0.51110000       0.47700000
    51  H          0.80900000       0.01110000       0.02300000
    52  H          0.69100000      -0.01110000       0.52300000
    53  C          0.28544000       0.58933180       0.90033110
    54  C          0.21456000       0.41066820       0.40033110
    55  C          0.78544000       0.91066820       0.09966890
    56  C          0.71456000       0.08933180       0.59966890
    57  H          0.35180000       0.54530000       0.87160000
    58  H          0.14820000       0.45470000       0.37160000
    59  H          0.85180000       0.95470000       0.12840000
    60  H          0.64820000       0.04530000       0.62840000
    61  N          0.74723000       0.79082130       0.77693800
    62  N          0.75277000       0.20917870       0.27693800
    63  N          0.24723000       0.70917870       0.22306200
    64  N          0.25277000       0.29082130       0.72306200
    65  H          0.64520000       0.75670000       0.78330000
    66  H          0.85480000       0.24330000       0.28330000
    67  H          0.14520000       0.74330000       0.21670000
    68  H          0.35480000       0.25670000       0.71670000
    69  H          0.84880000       0.75470000       0.77820000
    70  H          0.65120000       0.24530000       0.27820000
    71  H          0.34880000       0.74530000       0.22180000
    72  H          0.15120000       0.25470000       0.72180000
    73  N          0.90213000       0.94689170       0.75481100
    74  N          0.59787000       0.05310830       0.25481100
    75  N          0.40213000       0.55310830       0.24518900
    76  N          0.09787000       0.44689170       0.74518900
    77  H          0.90310000       0.01690000       0.74640000
    78  H          0.59690000       0.98310000       0.24640000
    79  H          0.40310000       0.48310000       0.25360000
    80  H          0.09690000       0.51690000       0.75360000
    81  H          0.00320000       0.91040000       0.75620000
    82  H          0.49680000       0.08960000       0.25620000
    83  H          0.50320000       0.58960000       0.24380000
    84  H         -0.00320000       0.41040000       0.74380000
    85  N          0.59593000       0.95115160       0.76341900
    86  N          0.90407000       0.04884840       0.26341900
    87  N          0.09593000       0.54884840       0.23658100
    88  N          0.40407000       0.45115160       0.73658100
    89  H          0.49360000       0.91740000       0.76970000
    90  H          0.00640000       0.08260000       0.26970000
    91  H         -0.00640000       0.58260000       0.23030000
    92  H          0.50640000       0.41740000       0.73030000
    93  H          0.59690000       0.02140000       0.75570000
    94  H          0.90310000       0.97860000       0.25570000
    95  H          0.09690000       0.47860000       0.24430000
    96  H          0.40310000       0.52140000       0.74430000
    97  C          0.74794000       0.89639160       0.76545900
    98  C          0.75206000       0.10360840       0.26545900
    99  C          0.24794000       0.60360840       0.23454100
   100  C          0.25206000       0.39639160       0.73454100
   101  O          0.74434000       0.62061140       0.90753900
   102  O          0.75566000       0.37938860       0.40753900
   103  O          0.24434000       0.87938860       0.09246100
   104  O          0.25566000       0.12061140       0.59246100
   105  N          0.66364000       0.32835180       0.07105100
   106  N          0.83636000       0.67164820       0.57105100
   107  N          0.16364000       0.17164820       0.92894900
   108  N          0.33636000       0.82835180       0.42894900
   109  O          0.75743000       0.53851130       0.81727800
   110  O          0.74257000       0.46148870       0.31727800
   111  O          0.25743000       0.96148870       0.18272200
   112  O          0.24257000       0.03851130       0.68272200
   113  N          0.73933000       0.53857160       0.87527100
   114  N          0.76067000       0.46142840       0.37527100
   115  N          0.23933000       0.96142840       0.12472900
   116  N          0.26067000       0.03857160       0.62472900
   117  C          0.67184000       0.33432000       0.00548110
   118  C          0.82816000       0.66568000       0.50548110
   119  C          0.17184000       0.16568000      -0.00548110
   120  C          0.32816000       0.83432000       0.49451890
   121  C          0.65284000       0.24052000       0.96746120
   122  C          0.84716000       0.75948000       0.46746120
   123  C          0.15284000       0.25948000       0.03253880
   124  C          0.34716000       0.74052000       0.53253880
   125  H          0.63400000       0.17230000       0.98750000
   126  H          0.86600000       0.82770000       0.48750000
   127  H          0.13400000       0.32770000       0.01250000
   128  H          0.36600000       0.67230000       0.51250000
   129  C          0.66084000       0.24582000       0.90176120
   130  C          0.83916000       0.75418000       0.40176120
   131  C          0.16084000       0.25418000       0.09823880
   132  C          0.33916000       0.74582000       0.59823880
   133  H          0.64670000       0.18110000       0.87760000
   134  H          0.85330000       0.81890000       0.37760000
   135  H          0.14670000       0.31890000       0.12240000
   136  H          0.35330000       0.68110000       0.62240000
   137  C          0.68874000       0.34272000       0.87032120
   138  C          0.81126000       0.65728000       0.37032120
   139  C          0.18874000       0.15728000       0.12967880
   140  C          0.31126000       0.84272000       0.62967880
   141  H          0.69390000       0.34650000       0.82510000
   142  H          0.80610000       0.65350000       0.32510000
   143  H          0.19390000       0.15350000       0.17490000
   144  H          0.30610000       0.84650000       0.67490000
   145  C          0.70863000       0.43346190       0.90762110
   146  C          0.79137000       0.56653810       0.40762110
   147  C          0.20863000       0.06653810       0.09237890
   148  C          0.29137000       0.93346190       0.59237890
   149  C          0.70113000       0.43202000       0.97344110
   150  C          0.79887000       0.56798000       0.47344110
   151  C          0.20113000       0.06798000       0.02655890
   152  C          0.29887000       0.93202000       0.52655890
   153  H          0.71590000       0.49740000      -0.00310000
   154  H          0.78410000       0.50260000       0.49690000
   155  H          0.21590000       0.00260000       0.00310000
   156  H          0.28410000      -0.00260000       0.50310000
   157  C          0.67346000       0.42572000       0.10923120
   158  C          0.82654000       0.57428000       0.60923120
   159  C          0.17346000       0.07428000       0.89076880
   160  C          0.32654000       0.92572000       0.39076880
   161  H          0.78850000       0.46170000       0.10190000
   162  H          0.71150000       0.53830000       0.60190000
   163  H          0.28850000       0.03830000       0.89810000
   164  H          0.21150000       0.96170000       0.39810000
   165  H          0.66240000       0.40670000       0.15450000
   166  H          0.83760000       0.59330000       0.65450000
   167  H          0.16240000       0.09330000       0.84550000
   168  H          0.33760000       0.90670000       0.34550000
   169  H          0.57580000       0.47480000       0.09720000
   170  H          0.92420000       0.52520000       0.59720000
   171  H          0.07580000       0.02520000       0.90280000
   172  H          0.42420000       0.97480000       0.40280000
   173  C          0.65335000       0.22482000       0.10291120
   174  C          0.84665000       0.77518000       0.60291120
   175  C          0.15335000       0.27518000       0.89708880
   176  C          0.34665000       0.72482000       0.39708880
   177  H          0.55460000       0.18230000       0.08480000
   178  H          0.94540000       0.81770000       0.58480000
   179  H          0.05460000       0.31770000       0.91520000
   180  H          0.44540000       0.68230000       0.41520000
   181  H          0.63230000       0.23620000       0.14860000
   182  H          0.86770000       0.76380000       0.64860000
   183  H          0.13230000       0.26380000       0.85140000
   184  H          0.36770000       0.73620000       0.35140000
   185  H          0.76610000       0.18540000       0.09700000
   186  H          0.73390000       0.81460000       0.59700000
   187  H          0.26610000       0.31460000       0.90300000
   188  H          0.23390000       0.68540000       0.40300000
