data_LITYIX
_symmetry_space_group_name_H-M    'P1'
_symmetry_Int_Tables_number       1
loop_
_symmetry_equiv_pos_site_id
_symmetry_equiv_pos_as_xyz
1 x,y,z
_cell_length_a                   19.7863
_cell_length_b                   7.525713
_cell_length_c                   11.4482
_cell_angle_alpha                90.0
_cell_angle_beta                 90.0
_cell_angle_gamma                90.0
loop_
_atom_site_label
_atom_site_type_symbol
_atom_site_fract_x
_atom_site_fract_y
_atom_site_fract_z
     1  Br         0.61074200       0.56826800       0.88851900
     2  Br         0.38925800       0.43173200       0.38851900
     3  Br         0.88925800       0.56826800       0.38851900
     4  Br         0.11074200       0.43173200       0.88851900
     5  S          0.92534600       0.73321150       0.83762100
     6  S          0.07465400       0.26678850       0.33762100
     7  S          0.57465400       0.73321150       0.33762100
     8  S          0.42534600       0.26678850       0.83762100
     9  O          0.94031150       0.89444000       0.90014000
    10  O          0.05968850       0.10556000       0.40014000
    11  O          0.55968850       0.89444000       0.40014000
    12  O          0.44031150       0.10556000       0.90014000
    13  O          0.95605150       0.57864000       0.89224000
    14  O          0.04394850       0.42136000       0.39224000
    15  O          0.54394850       0.57864000       0.39224000
    16  O          0.45605150       0.42136000       0.89224000
    17  C          0.83742000       0.69976000       0.84894000
    18  C          0.16258000       0.30024000       0.34894000
    19  C          0.66258000       0.69976000       0.34894000
    20  C          0.33742000       0.30024000       0.84894000
    21  C          0.70282000       0.62717000       0.87055000
    22  C          0.29718000       0.37283000       0.37055000
    23  C          0.79718000       0.62717000       0.37055000
    24  C          0.20282000       0.37283000       0.87055000
    25  C          0.73783000       0.56477000       0.77435000
    26  C          0.26217000       0.43523000       0.27435000
    27  C          0.76217000       0.56477000       0.27435000
    28  C          0.23783000       0.43523000       0.77435000
    29  H          0.71530000       0.49610000       0.71650000
    30  H          0.28470000       0.50390000       0.21650000
    31  H          0.78470000       0.49610000       0.21650000
    32  H          0.21530000       0.50390000       0.71650000
    33  C          0.80263000       0.76597000       0.94424000
    34  C          0.19737000       0.23403000       0.44424000
    35  C          0.69737000       0.76597000       0.44424000
    36  C          0.30263000       0.23403000       0.94424000
    37  H          0.82490000       0.83680000       0.00110000
    38  H          0.17510000       0.16320000       0.50110000
    39  H          0.67510000       0.83680000       0.50110000
    40  H          0.32490000       0.16320000       0.00110000
    41  C          0.80493000       0.60247000       0.76295000
    42  C          0.19507000       0.39753000       0.26295000
    43  C          0.69507000       0.60247000       0.26295000
    44  C          0.30493000       0.39753000       0.76295000
    45  H          0.82920000       0.56220000       0.69650000
    46  H          0.17080000       0.43780000       0.19650000
    47  H          0.67080000       0.56220000       0.19650000
    48  H          0.32920000       0.43780000       0.69650000
    49  C          0.73433000       0.72637000       0.95475000
    50  C          0.26567000       0.27363000       0.45475000
    51  C          0.76567000       0.72637000       0.45475000
    52  C          0.23433000       0.27363000       0.95475000
    53  H          0.70950000       0.76790000       0.02020000
    54  H          0.29050000       0.23210000       0.52020000
    55  H          0.79050000       0.76790000       0.52020000
    56  H          0.20950000       0.23210000       0.02020000
    57  O          0.94112180       0.74345000       0.71323000
    58  O          0.05887820       0.25655000       0.21323000
    59  O          0.55887820       0.74345000       0.21323000
    60  O          0.44112180       0.25655000       0.71323000
    61  C          0.97232000       0.23626000       0.67285000
    62  C          0.02768000       0.76374000       0.17285000
    63  C          0.52768000       0.23626000       0.17285000
    64  C          0.47232000       0.76374000       0.67285000
    65  N          0.94602000       0.23416000       0.77954000
    66  N          0.05398000       0.76584000       0.27954000
    67  N          0.55398000       0.23416000       0.27954000
    68  N          0.44602000       0.76584000       0.77954000
    69  H          0.94060000       0.33420000       0.81820000
    70  H          0.05940000       0.66580000       0.31820000
    71  H          0.55940000       0.33420000       0.31820000
    72  H          0.44060000       0.66580000       0.81820000
    73  H          0.93390000       0.13270000       0.81160000
    74  H          0.06610000       0.86730000       0.31160000
    75  H          0.56610000       0.13270000       0.31160000
    76  H          0.43390000       0.86730000       0.81160000
    77  N          0.97882000       0.08846000       0.61204000
    78  N          0.02118000       0.91154000       0.11204000
    79  N          0.52118000       0.08846000       0.11204000
    80  N          0.47882000       0.91154000       0.61204000
    81  H         -0.00500000       0.09210000       0.54050000
    82  H          0.00500000       0.90790000       0.04050000
    83  H          0.50500000       0.09210000       0.04050000
    84  H          0.49500000       0.90790000       0.54050000
    85  H          0.96700000      -0.01400000       0.64300000
    86  H          0.03300000       0.01400000       0.14300000
    87  H          0.53300000      -0.01400000       0.14300000
    88  H          0.46700000       0.01400000       0.64300000
    89  N          0.99002000       0.38845000       0.62634000
    90  N          0.00998000       0.61155000       0.12634000
    91  N          0.50998000       0.38845000       0.12634000
    92  N          0.49002000       0.61155000       0.62634000
    93  H          0.00610000       0.39170000       0.55480000
    94  H         -0.00610000       0.60830000       0.05480000
    95  H          0.49390000       0.39170000       0.05480000
    96  H          0.50610000       0.60830000       0.55480000
    97  H          0.98560000       0.48720000       0.66670000
    98  H          0.01440000       0.51280000       0.16670000
    99  H          0.51440000       0.48720000       0.16670000
   100  H          0.48560000       0.51280000       0.66670000
   101  C          0.26943000       0.91467000       0.20946000
   102  C          0.73057000       0.08533000       0.70946000
   103  C          0.23057000       0.91467000       0.70946000
   104  C          0.76943000       0.08533000       0.20946000
   105  H          0.25170000       0.97930000       0.27380000
   106  H          0.74830000       0.02070000       0.77380000
   107  H          0.24830000       0.97930000       0.77380000
   108  H          0.75170000       0.02070000       0.27380000
   109  C          0.31774000       0.73388000       0.02055000
   110  C          0.68226000       0.26612000       0.52055000
   111  C          0.18226000       0.73388000       0.52055000
   112  C          0.81774000       0.26612000       0.02055000
   113  H          0.33550000       0.67230000       0.95490000
   114  H          0.66450000       0.32770000       0.45490000
   115  H          0.16450000       0.67230000       0.45490000
   116  H          0.83550000       0.32770000       0.95490000
   117  C          0.33723000       0.87857000       0.20575000
   118  C          0.66277000       0.12143000       0.70575000
   119  C          0.16277000       0.87857000       0.70575000
   120  C          0.83723000       0.12143000       0.20575000
   121  C          0.25074000       0.76928000       0.02646000
   122  C          0.74926000       0.23072000       0.52646000
   123  C          0.24926000       0.76928000       0.52646000
   124  C          0.75074000       0.23072000       0.02646000
   125  H          0.22120000       0.73270000       0.96560000
   126  H          0.77880000       0.26730000       0.46560000
   127  H          0.27880000       0.73270000       0.46560000
   128  H          0.72120000       0.26730000       0.96560000
   129  C          0.36003000       0.78617000       0.10886000
   130  C          0.63997000       0.21383000       0.60886000
   131  C          0.13997000       0.78617000       0.60886000
   132  C          0.86003000       0.21383000       0.10886000
   133  H          0.40670000       0.75790000       0.10340000
   134  H          0.59330000       0.24210000       0.60340000
   135  H          0.09330000       0.75790000       0.60340000
   136  H          0.90670000       0.24210000       0.10340000
   137  C          0.22633000       0.85968000       0.12246000
   138  C          0.77367000       0.14032000       0.62246000
   139  C          0.27367000       0.85968000       0.62246000
   140  C          0.72633000       0.14032000       0.12246000
   141  H          0.17930000       0.88390000       0.12850000
   142  H          0.82070000       0.11610000       0.62850000
   143  H          0.32070000       0.88390000       0.62850000
   144  H          0.67930000       0.11610000       0.12850000
   145  C          0.38483000       0.93629000       0.30127000
   146  C          0.61517000       0.06371000       0.80127000
   147  C          0.11517000       0.93629000       0.80127000
   148  C          0.88483000       0.06371000       0.30127000
   149  H          0.40630000       0.04870000       0.27930000
   150  H          0.59370000       0.95130000       0.77930000
   151  H          0.09370000       0.04870000       0.77930000
   152  H          0.90630000       0.95130000       0.27930000
   153  H          0.41960000       0.84510000       0.31250000
   154  H          0.58040000       0.15490000       0.81250000
   155  H          0.08040000       0.84510000       0.81250000
   156  H          0.91960000       0.15490000       0.31250000
   157  H          0.35940000       0.95220000       0.37400000
   158  H          0.64060000       0.04780000       0.87400000
   159  H          0.14060000       0.95220000       0.87400000
   160  H          0.85940000       0.04780000       0.37400000
