data_LITZOE
_symmetry_space_group_name_H-M    'P1'
_symmetry_Int_Tables_number       1
loop_
_symmetry_equiv_pos_site_id
_symmetry_equiv_pos_as_xyz
1 x,y,z
_cell_length_a                   7.53323
_cell_length_b                   11.94125
_cell_length_c                   20.20609
_cell_angle_alpha                90.0
_cell_angle_beta                 90.0
_cell_angle_gamma                90.0
loop_
_atom_site_label
_atom_site_type_symbol
_atom_site_fract_x
_atom_site_fract_y
_atom_site_fract_z
     1  S          0.26279500       0.64479300       0.18833517
     2  S          0.23720500       0.35520700       0.68833517
     3  S          0.76279500       0.85520700       0.81166483
     4  S          0.73720500       0.14479300       0.31166483
     5  F          0.29529190       0.60977120       0.90019500
     6  F          0.20470810       0.39022880       0.40019500
     7  F          0.79529190       0.89022880       0.09980500
     8  F          0.70470810       0.10977120       0.59980500
     9  O          0.10118150       0.58734900       0.20911600
    10  O          0.39881850       0.41265100       0.70911600
    11  O          0.60118150       0.91265100       0.79088400
    12  O          0.89881850       0.08734900       0.29088400
    13  C          0.26975190       0.63521110       0.10124700
    14  C          0.23024810       0.36478890       0.60124700
    15  C          0.76975190       0.86478890       0.89875300
    16  C          0.73024810       0.13521110       0.39875300
    17  O          0.42245150       0.58889900       0.21275600
    18  O          0.07754850       0.41110100       0.71275600
    19  O          0.92245150       0.91110100       0.78724400
    20  O          0.57754850       0.08889900       0.28724400
    21  C          0.18392000       0.54752140       0.06922900
    22  C          0.31608000       0.45247860       0.56922900
    23  C          0.68392000       0.95247860       0.93077100
    24  C          0.81608000       0.04752140       0.43077100
    25  H          0.11970000       0.49340000       0.09400000
    26  H          0.38030000       0.50660000       0.59400000
    27  H          0.61970000       0.00660000       0.90600000
    28  H          0.88030000      -0.00660000       0.40600000
    29  O          0.26116160       0.76354800       0.20431500
    30  O          0.23883840       0.23645200       0.70431500
    31  O          0.76116160       0.73645200       0.79568500
    32  O          0.73883840       0.26354800       0.29568500
    33  C          0.19273000       0.53954160       0.00082900
    34  C          0.30727000       0.46045840       0.50082900
    35  C          0.69273000       0.96045840      -0.00082900
    36  C          0.80727000       0.03954160       0.49917100
    37  H          0.13420000       0.48050000       0.97800000
    38  H          0.36580000       0.51950000       0.47800000
    39  H          0.63420000       0.01950000       0.02200000
    40  H          0.86580000       0.98050000       0.52200000
    41  C          0.28732000       0.61851160       0.96696200
    42  C          0.21268000       0.38148840       0.46696200
    43  C          0.78732000       0.88148840       0.03303800
    44  C          0.71268000       0.11851160       0.53303800
    45  C          0.37333000       0.70550150      -0.00308900
    46  C          0.12667000       0.29449850       0.49691100
    47  C          0.87333000       0.79449850       0.00308900
    48  C          0.62667000       0.20550150       0.50308900
    49  H          0.43770000       0.75870000       0.97150000
    50  H          0.06230000       0.24130000       0.47150000
    51  H          0.93770000       0.74130000       0.02850000
    52  H          0.56230000       0.25870000       0.52850000
    53  C          0.36452000       0.71457140       0.06528800
    54  C          0.13548000       0.28542860       0.56528800
    55  C          0.86452000       0.78542860       0.93471200
    56  C          0.63548000       0.21457140       0.43471200
    57  H          0.42270000       0.77450000       0.08730000
    58  H          0.07730000       0.22550000       0.58730000
    59  H          0.92270000       0.72550000       0.91270000
    60  H          0.57730000       0.27450000       0.41270000
    61  N          0.60846180       0.85736140       0.24327700
    62  N          0.89153820       0.14263860       0.74327700
    63  N          0.10846180       0.64263860       0.75672300
    64  N          0.39153820       0.35736140       0.25672300
    65  H          0.60690000       0.92720000       0.25720000
    66  H          0.89310000       0.07280000       0.75720000
    67  H          0.10690000       0.57280000       0.74280000
    68  H          0.39310000       0.42720000       0.24280000
    69  H          0.50810000       0.82170000       0.23610000
    70  H         -0.00810000       0.17830000       0.73610000
    71  H          0.00810000       0.67830000       0.76390000
    72  H          0.49190000       0.32170000       0.26390000
    73  N          0.76287190       0.70010100       0.21306600
    74  N          0.73712810       0.29989900       0.71306600
    75  N          0.26287190       0.79989900       0.78693400
    76  N          0.23712810       0.20010100       0.28693400
    77  H          0.66220000       0.66440000       0.20650000
    78  H          0.83780000       0.33560000       0.70650000
    79  H          0.16220000       0.83560000       0.79350000
    80  H          0.33780000       0.16440000       0.29350000
    81  H          0.86450000       0.66560000       0.20630000
    82  H          0.63550000       0.33440000       0.70630000
    83  H          0.36450000       0.83440000       0.79370000
    84  H          0.13550000       0.16560000       0.29370000
    85  N          0.91328170       0.85931140       0.24399700
    86  N          0.58671830       0.14068860       0.74399700
    87  N          0.41328170       0.64068860       0.75600300
    88  N          0.08671830       0.35931140       0.25600300
    89  H          0.91250000       0.92910000       0.25790000
    90  H          0.58750000       0.07090000       0.75790000
    91  H          0.41250000       0.57090000       0.74210000
    92  H          0.08750000       0.42910000       0.24210000
    93  H          0.01480000       0.82470000       0.23720000
    94  H          0.48520000       0.17530000       0.73720000
    95  H          0.51480000       0.67530000       0.76280000
    96  H         -0.01480000       0.32470000       0.26280000
    97  C          0.76142000       0.80615110       0.23324600
    98  C          0.73858000       0.19384890       0.73324600
    99  C          0.26142000       0.69384890       0.76675400
   100  C          0.23858000       0.30615110       0.26675400
   101  N          0.69732000       0.65557130       0.57766700
   102  N          0.80268000       0.34442870       0.07766700
   103  N          0.19732000       0.84442870       0.42233300
   104  N          0.30268000       0.15557130       0.92233300
   105  C          0.69782000       0.62790130       0.51141900
   106  C          0.80218000       0.37209870       0.01141900
   107  C          0.19782000       0.87209870       0.48858100
   108  C          0.30218000       0.12790130       0.98858100
   109  C          0.78353000       0.53033130       0.48864900
   110  C          0.71647000       0.46966870       0.98864900
   111  C          0.28353000       0.96966870       0.51135100
   112  C          0.21647000       0.03033130       0.01135100
   113  H          0.84570000       0.48410000       0.51910000
   114  H          0.65430000       0.51590000       0.01910000
   115  H          0.34570000       0.01590000       0.48090000
   116  H          0.15430000       0.98410000       0.98090000
   117  C          0.77823000       0.50108150       0.42248100
   118  C          0.72177000       0.49891850       0.92248100
   119  C          0.27823000      -0.00108150       0.57751900
   120  C          0.22177000       0.00108150       0.07751900
   121  H          0.83670000       0.43490000       0.40820000
   122  H          0.66330000       0.56510000       0.90820000
   123  H          0.33670000       0.06510000       0.59180000
   124  H          0.16330000       0.93490000       0.09180000
   125  C          0.68993000       0.56602190       0.37692100
   126  C          0.81007000       0.43397810       0.87692100
   127  C          0.18993000       0.93397810       0.62307900
   128  C          0.31007000       0.06602190       0.12307900
   129  H          0.68550000       0.54460000       0.33170000
   130  H          0.81450000       0.45540000       0.83170000
   131  H          0.18550000       0.95540000       0.66830000
   132  H          0.31450000       0.04460000       0.16830000
   133  C          0.60823000       0.66232180       0.39797100
   134  C          0.89177000       0.33767820       0.89797100
   135  C          0.10823000       0.83767820       0.60202900
   136  C          0.39177000       0.16232180       0.10202900
   137  H          0.54830000       0.70810000       0.36670000
   138  H          0.95170000       0.29190000       0.86670000
   139  H          0.04830000       0.79190000       0.63330000
   140  H          0.45170000       0.20810000       0.13330000
   141  C          0.61122000       0.69435150       0.46401900
   142  C          0.88878000       0.30564850       0.96401900
   143  C          0.11122000       0.80564850       0.53598100
   144  C          0.38878000       0.19435150       0.03598100
   145  H          0.55420000       0.76170000       0.47720000
   146  H          0.94580000       0.23830000       0.97720000
   147  H          0.05420000       0.73830000       0.52280000
   148  H          0.44580000       0.26170000       0.02280000
   149  C          0.61693000       0.75813170       0.60007100
   150  C          0.88307000       0.24186830       0.10007100
   151  C          0.11693000       0.74186830       0.39992900
   152  C          0.38307000       0.25813170       0.89992900
   153  H          0.66740000       0.82140000       0.57560000
   154  H          0.83260000       0.17860000       0.07560000
   155  H          0.16740000       0.67860000       0.42440000
   156  H          0.33260000       0.32140000       0.92440000
   157  H          0.64000000       0.76790000       0.64750000
   158  H          0.86000000       0.23210000       0.14750000
   159  H          0.14000000       0.73210000       0.35250000
   160  H          0.36000000       0.26790000       0.85250000
   161  H          0.48850000       0.75500000       0.59250000
   162  H          0.01150000       0.24500000       0.09250000
   163  H         -0.01150000       0.74500000       0.40750000
   164  H          0.51150000       0.25500000       0.90750000
   165  C          0.78643000       0.58509160       0.62524900
   166  C          0.71357000       0.41490840       0.12524900
   167  C          0.28643000       0.91490840       0.37475100
   168  C          0.21357000       0.08509160       0.87475100
   169  H          0.73850000       0.50890000       0.62250000
   170  H          0.76150000       0.49110000       0.12250000
   171  H          0.23850000      -0.00890000       0.37750000
   172  H          0.26150000       0.00890000       0.87750000
   173  H          0.76720000       0.61480000       0.66990000
   174  H          0.73280000       0.38520000       0.16990000
   175  H          0.26720000       0.88520000       0.33010000
   176  H          0.23280000       0.11480000       0.83010000
   177  H          0.91380000       0.58370000       0.61560000
   178  H          0.58620000       0.41630000       0.11560000
   179  H          0.41380000       0.91630000       0.38440000
   180  H          0.08620000       0.08370000       0.88440000
