data_LIWDEC
_symmetry_space_group_name_H-M    'P1'
_symmetry_Int_Tables_number       1
loop_
_symmetry_equiv_pos_site_id
_symmetry_equiv_pos_as_xyz
1 x,y,z
_cell_length_a                   13.147312
_cell_length_b                   15.6753
_cell_length_c                   15.4852
_cell_angle_alpha                90.0
_cell_angle_beta                 107.2861
_cell_angle_gamma                90.0
loop_
_atom_site_label
_atom_site_type_symbol
_atom_site_fract_x
_atom_site_fract_y
_atom_site_fract_z
     1  S          0.08872110       0.31206120       0.42313110
     2  S          0.91127890       0.81206120       0.57686890
     3  S          0.28728120       0.30025110       0.37743110
     4  S          0.71271880       0.80025110       0.62256890
     5  S          0.21224100       0.36393120       0.62485100
     6  S          0.78775900       0.86393120       0.37514900
     7  S          0.41532100       0.35997120       0.58464100
     8  S          0.58467900       0.85997120       0.41535900
     9  S          0.30008120       0.41660140       0.81395110
    10  S          0.69991880       0.91660140       0.18604890
    11  S          0.54518120       0.40654150       0.76801120
    12  S          0.45481880       0.90654150       0.23198880
    13  C          0.07955000       0.28255000       0.31334000
    14  C          0.92045000       0.78255000       0.68666000
    15  H          0.01430000       0.27070000       0.27090000
    16  H          0.98570000       0.77070000       0.72910000
    17  C          0.17115000       0.27755000       0.29284000
    18  C          0.82885000       0.77755000       0.70716000
    19  H          0.17230000       0.26230000       0.23510000
    20  H          0.82770000       0.76230000       0.76490000
    21  C          0.22444000       0.32204000       0.45844000
    22  C          0.77556000       0.82204000       0.54156000
    23  C          0.27854000       0.34724000       0.54574000
    24  C          0.72146000       0.84724000       0.45426000
    25  C          0.32544000       0.38924000       0.71394000
    26  C          0.67456000       0.88924000       0.28606000
    27  C          0.41914000       0.38554000       0.69414000
    28  C          0.58086000       0.88554000       0.30586000
    29  C          0.43204000       0.44624000       0.88724000
    30  C          0.56796000       0.94624000       0.11276000
    31  H          0.44710000       0.50500000       0.87330000
    32  H          0.55290000       0.00500000       0.12670000
    33  C          0.51944000       0.38924000       0.87534000
    34  C          0.48056000       0.88924000       0.12466000
    35  H          0.49890000       0.32950000       0.87900000
    36  H          0.50110000       0.82950000       0.12100000
    37  C          0.41846000       0.44426000       0.98265000
    38  C          0.58154000       0.94426000       0.01735000
    39  H          0.36230000       0.48250000       0.98500000
    40  H          0.63770000       0.98250000       0.01500000
    41  H          0.48380000       0.46150000       0.02620000
    42  H          0.51620000       0.96150000       0.97380000
    43  H          0.40070000       0.38740000      -0.00380000
    44  H          0.59930000       0.88740000       0.00380000
    45  C          0.62896000       0.40556000       0.94775000
    46  C          0.37104000       0.90556000       0.05225000
    47  H          0.68120000       0.36720000       0.93760000
    48  H          0.31880000       0.86720000       0.06240000
    49  H          0.62210000       0.39610000       0.00700000
    50  H          0.37790000       0.89610000      -0.00700000
    51  H          0.65070000       0.46330000       0.94300000
    52  H          0.34930000       0.96330000       0.05700000
    53  S          0.21262120       0.59197120       0.61647110
    54  S          0.78737880       0.09197120       0.38352890
    55  S          0.41449110       0.58497130       0.57530110
    56  S          0.58550890       0.08497130       0.42469890
    57  S          0.09136100       0.53387120       0.40616110
    58  S          0.90863900       0.03387120       0.59383890
    59  S          0.29838110       0.52946120       0.37309100
    60  S          0.70161890       0.02946120       0.62690900
    61  S          0.21765120       0.48431140       0.18168110
    62  S          0.78234880       0.98431140       0.81831890
    63  C          0.32645000       0.61735000       0.70214000
    64  C          0.67355000       0.11735000       0.29786000
    65  H          0.32410000       0.63200000       0.75970000
    66  H          0.67590000       0.13200000       0.24030000
    67  C          0.41675000       0.61455000       0.68174000
    68  C          0.58325000       0.11455000       0.31826000
    69  H          0.48070000       0.62850000       0.72460000
    70  H          0.51930000       0.12850000       0.27540000
    71  C          0.27784000       0.57154000       0.53774000
    72  C          0.72216000       0.07154000       0.46226000
    73  C          0.22694000       0.54675000       0.44874000
    74  C          0.77306000       0.04675000       0.55126000
    75  C          0.09244000       0.51104000       0.29624000
    76  C          0.90756000       0.01104000       0.70376000
    77  C          0.18724000       0.50904000       0.28044000
    78  C          0.81276000       0.00904000       0.71956000
    79  C         -0.00094000       0.44964000       0.12174000
    80  C          0.00094000       0.94964000       0.87826000
    81  H          0.01590000       0.38930000       0.13510000
    82  H          0.98410000       0.88930000       0.86490000
    83  C          0.08874000       0.48964000       0.09454000
    84  C          0.91126000       0.98964000       0.90546000
    85  H          0.07130000       0.54990000       0.08090000
    86  H          0.92870000       0.04990000       0.91910000
    87  C          0.89215000       0.45566000       0.04655000
    88  C          0.10785000       0.95566000       0.95345000
    89  H          0.83670000       0.43180000       0.06780000
    90  H          0.16330000       0.93180000       0.93220000
    91  H          0.89680000       0.42430000      -0.00550000
    92  H          0.10320000       0.92430000       0.00550000
    93  H          0.87640000       0.51430000       0.03030000
    94  H          0.12360000       0.01430000       0.96970000
    95  C          0.10836000       0.44946000       0.01234000
    96  C          0.89164000       0.94946000       0.98766000
    97  H          0.16730000       0.47730000      -0.00040000
    98  H          0.83270000       0.97730000       0.00040000
    99  H          0.04580000       0.45530000       0.96140000
   100  H          0.95420000       0.95530000       0.03860000
   101  H          0.12430000       0.38990000       0.02370000
   102  H          0.87570000       0.88990000       0.97630000
   103  S          0.96729880       0.49740160       0.21781130
   104  S          0.03270120      -0.00259840       0.78218870
   105  S          0.46010140       0.66113130       0.24562130
   106  S          0.53989860       0.16113130       0.75437870
   107  S          0.65363150       0.66194130       0.18645120
   108  S          0.34636850       0.16194130       0.81354880
   109  S          0.59857120       0.62818130       0.45032110
   110  S          0.40142880       0.12818130       0.54967890
   111  S          0.79734120       0.62851130       0.39881120
   112  S          0.20265880       0.12851130       0.60118880
   113  S          0.69038120       0.54166160       0.62527120
   114  S          0.30961880       0.04166160       0.37472880
   115  S          0.92595130       0.54202190       0.56461130
   116  S          0.07404870       0.04202190       0.43538870
   117  C          0.44287000       0.65606000       0.12966000
   118  C          0.55713000       0.15606000       0.87034000
   119  H          0.37530000       0.65330000       0.08800000
   120  H          0.62470000       0.15330000       0.91200000
   121  C          0.53067000       0.65635000       0.10335000
   122  C          0.46933000       0.15635000       0.89665000
   123  H          0.52630000       0.65350000       0.04230000
   124  H          0.47370000       0.15350000       0.95770000
   125  C          0.59895000       0.65185000       0.27604000
   126  C          0.40105000       0.15185000       0.72396000
   127  C          0.65764000       0.63814000       0.36364000
   128  C          0.34236000       0.13814000       0.63636000
   129  C          0.71014000       0.57915000       0.52564000
   130  C          0.28986000       0.07915000       0.47436000
   131  C          0.80154000       0.57895000       0.50124000
   132  C          0.19846000       0.07895000       0.49876000
   133  C          0.82524000       0.53624000       0.70094000
   134  C          0.17476000       0.03624000       0.29906000
   135  H          0.85250000       0.59430000       0.71540000
   136  H          0.14750000       0.09430000       0.28460000
   137  C          0.89884000       0.48784000       0.65824000
   138  C          0.10116000       0.98784000       0.34176000
   139  H          0.86610000       0.43250000       0.63670000
   140  H          0.13390000       0.93250000       0.36330000
   141  C          0.81715000       0.49406000       0.78575000
   142  C          0.18285000      -0.00594000       0.21425000
   143  H          0.77110000       0.52700000       0.81080000
   144  H          0.22890000       0.02700000       0.18920000
   145  H          0.88660000       0.49060000       0.82890000
   146  H          0.11340000       0.99060000       0.17110000
   147  H          0.78840000       0.43770000       0.77180000
   148  H          0.21160000       0.93770000       0.22820000
   149  C          0.00895000       0.47186000       0.72465000
   150  C         -0.00895000       0.97186000       0.27535000
   151  H          0.05150000       0.44030000       0.69500000
   152  H          0.94850000       0.94030000       0.30500000
   153  H          0.00180000       0.43970000       0.77530000
   154  H         -0.00180000       0.93970000       0.22470000
   155  H          0.04260000       0.52540000       0.74540000
   156  H          0.95740000       0.02540000       0.25460000
   157  S          0.85040150       0.23460130       0.81411120
   158  S          0.14959850       0.73460130       0.18588880
   159  S          0.04194140       0.22997140       0.75243130
   160  S          0.95805860       0.72997140       0.24756870
   161  S          0.70529120       0.27142130       0.60192110
   162  S          0.29470880       0.77142130       0.39807890
   163  S          0.90265120       0.26357120       0.54817110
   164  S          0.09734880       0.76357120       0.45182890
   165  S          0.57944140       0.35794190       0.43569130
   166  S          0.42055860       0.85794190       0.56430870
   167  S          0.81182130       0.34493170       0.37139120
   168  S          0.18817870       0.84493170       0.62860880
   169  C          0.97356000       0.23246000       0.89485000
   170  C          0.02644000       0.73246000       0.10515000
   171  H          0.97880000       0.23220000       0.95600000
   172  H          0.02120000       0.73220000       0.04400000
   173  C          0.05867000       0.23116000       0.86845000
   174  C          0.94133000       0.73116000       0.13155000
   175  H          0.12620000       0.23070000       0.91010000
   176  H          0.87380000       0.73070000       0.08990000
   177  C          0.90265000       0.24254000       0.72144000
   178  C          0.09735000       0.74254000       0.27856000
   179  C          0.84455000       0.25714000       0.63724000
   180  C          0.15545000       0.75714000       0.36276000
   181  C          0.70305000       0.31606000       0.49594000
   182  C          0.29695000       0.81606000       0.50406000
   183  C          0.79175000       0.31235000       0.47264000
   184  C          0.20825000       0.81235000       0.52736000
   185  C          0.58844000       0.36214000       0.32133000
   186  C          0.41156000       0.86214000       0.67867000
   187  H          0.58340000       0.30400000       0.29690000
   188  H          0.41660000       0.80400000       0.70310000
   189  C          0.48995000       0.41275000       0.26855000
   190  C          0.51005000       0.91275000       0.73145000
   191  H          0.42690000       0.38430000       0.27280000
   192  H          0.57310000       0.88430000       0.72720000
   193  H          0.48810000       0.41640000       0.20620000
   194  H          0.51190000       0.91640000       0.79380000
   195  H          0.49310000       0.46900000       0.29340000
   196  H          0.50690000       0.96900000       0.70660000
   197  C          0.69305000       0.41266000       0.21774000
   198  C          0.30695000       0.91266000       0.78226000
   199  H          0.75830000       0.44000000       0.21750000
   200  H          0.24170000       0.94000000       0.78250000
   201  H          0.63370000       0.44660000       0.18420000
   202  H          0.36630000       0.94660000       0.81580000
   203  H          0.68910000       0.35730000       0.19020000
   204  H          0.31090000       0.85730000       0.80980000
   205  C          0.69014000       0.40294000       0.31444000
   206  C          0.30986000       0.90294000       0.68556000
   207  H          0.69530000       0.45990000       0.34130000
   208  H          0.30470000       0.95990000       0.65870000
   209  P          0.67099150       0.70326150       0.89515130
   210  P          0.32900850       0.20326150       0.10484870
   211  F          0.70118000       0.79865000       0.89787000
   212  F          0.29882000       0.29865000       0.10213000
   213  F          0.64734000       0.70596000       0.79154000
   214  F          0.35266000       0.20596000       0.20846000
   215  F          0.55244000       0.72057000       0.88424000
   216  F          0.44756000       0.22057000       0.11576000
   217  F          0.64359000       0.61045000       0.88919000
   218  F          0.35641000       0.11045000       0.11081000
   219  F          0.69345000       0.70278000      -0.00147000
   220  F          0.30655000       0.20278000       0.00147000
   221  F          0.79094000       0.68796000       0.90574000
   222  F          0.20906000       0.18796000       0.09426000
   223  P          0.82720860       0.18655140       0.10391130
   224  P          0.17279140       0.68655140       0.89608870
   225  F          0.80306000       0.20058000       0.00233000
   226  F          0.19694000       0.70058000      -0.00233000
   227  F          0.85326000       0.17085000       0.20973000
   228  F          0.14674000       0.67085000       0.79027000
   229  F          0.87162000       0.27545000       0.12996000
   230  F          0.12838000       0.77545000       0.87004000
   231  F          0.78092000       0.09875000       0.09026000
   232  F          0.21908000       0.59875000       0.90974000
   233  F          0.71175000       0.21446000       0.09734000
   234  F          0.28825000       0.71446000       0.90266000
   235  F          0.94015000       0.15697000       0.11205000
   236  F          0.05985000       0.65697000       0.88795000
