data_LIXSEU
_symmetry_space_group_name_H-M    'P1'
_symmetry_Int_Tables_number       1
loop_
_symmetry_equiv_pos_site_id
_symmetry_equiv_pos_as_xyz
1 x,y,z
_cell_length_a                   14.93621
_cell_length_b                   5.13133
_cell_length_c                   18.082012
_cell_angle_alpha                90.0
_cell_angle_beta                 92.6423
_cell_angle_gamma                90.0
loop_
_atom_site_label
_atom_site_type_symbol
_atom_site_fract_x
_atom_site_fract_y
_atom_site_fract_z
     1  Cl         0.04478300       0.60075200       0.60460200
     2  Cl         0.45521700       0.10075200       0.89539800
     3  Cl         0.95521700       0.39924800       0.39539800
     4  Cl         0.54478300       0.89924800       0.10460200
     5  O          0.27072100       0.45153000       0.68916700
     6  O          0.22927900       0.95153000       0.81083300
     7  O          0.72927900       0.54847000       0.31083300
     8  O          0.77072100       0.04847000       0.18916700
     9  O          0.28957800       0.46912000       0.43293600
    10  O          0.21042200       0.96912000       0.06706400
    11  O          0.71042200       0.53088000       0.56706400
    12  O          0.78957800       0.03088000       0.93293600
    13  O          0.35900900       0.51133000       0.54449600
    14  O          0.14099100       0.01133000       0.95550400
    15  O          0.64099100       0.48867000       0.45550400
    16  O          0.85900900      -0.01133000       0.04449600
    17  C          0.11860110       0.90117000       0.50083800
    18  C          0.38139890       0.40117000      -0.00083800
    19  C          0.88139890       0.09883000       0.49916200
    20  C          0.61860110       0.59883000       0.00083800
    21  C          0.17814100       0.08873000       0.47827800
    22  C          0.32185900       0.58873000       0.02172200
    23  C          0.82185900       0.91127000       0.52172200
    24  C          0.67814100       0.41127000       0.97827800
    25  C          0.23845900       0.21063000       0.52854700
    26  C          0.26154100       0.71063000       0.97145300
    27  C          0.76154100       0.78937000       0.47145300
    28  C          0.73845900       0.28937000       0.02854700
    29  C          0.23506900       0.13563000       0.60230700
    30  C          0.26493100       0.63563000       0.89769300
    31  C          0.76493100       0.86437000       0.39769300
    32  C          0.73506900       0.36437000       0.10230700
    33  N          0.29479800       0.25292000       0.66066600
    34  N          0.20520200       0.75292000       0.83933400
    35  N          0.70520200       0.74708000       0.33933400
    36  N          0.79479800       0.24708000       0.16066600
    37  O          0.36183900       0.13553000       0.67983900
    38  O          0.13816100       0.63553000       0.82016100
    39  O          0.63816100       0.86447000       0.32016100
    40  O          0.86183900       0.36447000       0.17983900
    41  C          0.11840900       0.83437000       0.57497800
    42  C          0.38159100       0.33437000       0.92502200
    43  C          0.88159100       0.16563000       0.42502200
    44  C          0.61840900       0.66563000       0.07497800
    45  C          0.17615900       0.95097000       0.62692700
    46  C          0.32384100       0.45097000       0.87307300
    47  C          0.82384100       0.04903000       0.37307300
    48  C          0.67615900       0.54903000       0.12692700
    49  C          0.30250900       0.41363000       0.50331800
    50  C          0.19749100       0.91363000      -0.00331800
    51  C          0.69749100       0.58637000       0.49668200
    52  C          0.80250900       0.08637000       0.00331800
    53  H          0.17241200       0.90560000       0.67951100
    54  H          0.32758800       0.40560000       0.82048900
    55  H          0.82758800       0.09440000       0.32048900
    56  H          0.67241200       0.59440000       0.17951100
    57  H          0.17801200       0.13540000       0.42631100
    58  H          0.32198800       0.63540000       0.07368900
    59  H          0.82198800       0.86460000       0.57368900
    60  H          0.67801200       0.36460000       0.92631100
    61  H          0.07631300       0.81660000       0.46561100
    62  H          0.42368700       0.31660000       0.03438900
    63  H          0.92368700       0.18340000       0.53438900
    64  H          0.57631300       0.68340000       0.96561100
    65  H          0.33251700       0.60250000       0.41641500
    66  H          0.16748300       0.10250000       0.08358500
    67  H          0.66748300       0.39750000       0.58358500
    68  H          0.83251700       0.89750000       0.91641500
    69  C          0.37190100       0.16813000       0.20130800
    70  C          0.12809900       0.66813000       0.29869200
    71  C          0.62809900       0.83187000       0.79869200
    72  C          0.87190100       0.33187000       0.70130800
    73  C          0.43912110       0.35453000       0.21654900
    74  C          0.06087890       0.85453000       0.28345100
    75  C          0.56087890       0.64547000       0.78345100
    76  C          0.93912110       0.14547000       0.71654900
    77  C          0.48503100       0.36933000       0.28383900
    78  C          0.01496900       0.86933000       0.21616100
    79  C          0.51496900       0.63067000       0.71616100
    80  C          0.98503100       0.13067000       0.78383900
    81  C          0.46013900       0.18943000       0.33712700
    82  C          0.03986100       0.68943000       0.16287300
    83  C          0.53986100       0.81057000       0.66287300
    84  C          0.96013900       0.31057000       0.83712700
    85  N          0.48786900       0.14363000       0.40858700
    86  N          0.01213100       0.64363000       0.09141300
    87  N          0.51213100       0.85637000       0.59141300
    88  N          0.98786900       0.35637000       0.90858700
    89  N          0.44313100       0.94553000       0.43683700
    90  N          0.05686900       0.44553000       0.06316300
    91  N          0.55686900       0.05447000       0.56316300
    92  N          0.94313100       0.55447000       0.93683700
    93  C          0.34792100      -0.00957000       0.25346800
    94  C          0.15207900       0.49043000       0.24653200
    95  C          0.65207900       0.00957000       0.74653200
    96  C          0.84792100       0.50957000       0.75346800
    97  C          0.39355900       0.00423000       0.32275700
    98  C          0.10644100       0.50423000       0.17724300
    99  C          0.60644100      -0.00423000       0.67724300
   100  C          0.89355900       0.49577000       0.82275700
   101  N          0.38567900       0.85933000       0.38599700
   102  N          0.11432100       0.35933000       0.11400300
   103  N          0.61432100       0.14067000       0.61400300
   104  N          0.88567900       0.64067000       0.88599700
   105  H          0.30741200       0.86040000       0.24231000
   106  H          0.19258800       0.36040000       0.25769000
   107  H          0.69258800       0.13960000       0.75769000
   108  H          0.80741200       0.63960000       0.74231000
   109  H          0.34271200       0.16640000       0.15321100
   110  H          0.15728800       0.66640000       0.34678900
   111  H          0.65728800       0.83360000       0.84678900
   112  H          0.84271200       0.33360000       0.65321100
   113  H          0.45361300       0.47240000       0.17911200
   114  H          0.04638700       0.97240000       0.32088800
   115  H          0.54638700       0.52760000       0.82088800
   116  H          0.95361300       0.02760000       0.67911200
   117  H          0.52821500       0.22140000       0.43471300
   118  H          0.97178500       0.72140000       0.06528700
   119  H          0.47178500       0.77860000       0.56528700
   120  H          0.02821500       0.27860000       0.93471300
   121  H          0.53081400       0.49740000       0.29561100
   122  H          0.96918600      -0.00260000       0.20438900
   123  H          0.46918600       0.50260000       0.70438900
   124  H          0.03081400       0.00260000       0.79561100
