data_LOBBAG
_symmetry_space_group_name_H-M    'P1'
_symmetry_Int_Tables_number       1
loop_
_symmetry_equiv_pos_site_id
_symmetry_equiv_pos_as_xyz
1 x,y,z
_cell_length_a                   12.27329
_cell_length_b                   10.60027
_cell_length_c                   13.19079
_cell_angle_alpha                90.0
_cell_angle_beta                 95.8953
_cell_angle_gamma                90.0
loop_
_atom_site_label
_atom_site_type_symbol
_atom_site_fract_x
_atom_site_fract_y
_atom_site_fract_z
     1  Br         0.29260900       0.48803180       0.66363900
     2  Br         0.70739100      -0.01196820       0.33636100
     3  Cl         0.34364000       0.73897000       0.44593000
     4  Cl         0.65636000       0.23897000       0.55407000
     5  C          0.31679000       0.89508800       0.18288000
     6  C          0.68321000       0.39508800       0.81712000
     7  C          0.25319000       0.87639000       0.27849000
     8  C          0.74681000       0.37639000       0.72151000
     9  C          0.19527000       0.00501000       0.29637000
    10  C          0.80473000       0.50501000       0.70363000
    11  C          0.27739000       0.11499000       0.30398000
    12  C          0.72261000       0.61499000       0.69602000
    13  C          0.39269000       0.05501000       0.29568000
    14  C          0.60731000       0.55501000       0.70432000
    15  C          0.41618000       0.95938900       0.37418000
    16  C          0.58382000       0.45938900       0.62582000
    17  C          0.34271000       0.86419000       0.36689000
    18  C          0.65729000       0.36419000       0.63311000
    19  C          0.27909000       0.19951000       0.39498000
    20  C          0.72091000       0.69951000       0.60502000
    21  C          0.24991000       0.16661100       0.48788000
    22  C          0.75009000       0.66661100       0.51212000
    23  C          0.25421000       0.25111100       0.56819000
    24  C          0.74579000       0.75111100       0.43181000
    25  C          0.28808000       0.37011000       0.55608000
    26  C          0.71192000       0.87011000       0.44392000
    27  C          0.32551000       0.40521200       0.46139000
    28  C          0.67449000       0.90521200       0.53861000
    29  C          0.31801100       0.31951200       0.38389000
    30  C          0.68198900       0.81951200       0.61611000
    31  C          0.10548000       0.02729000       0.20939000
    32  C          0.89452000       0.52729000       0.79061000
    33  C         -0.00759000       0.05041200       0.23601000
    34  C          0.00759000       0.55041200       0.76399000
    35  O          0.30806000       0.83053000       0.10816000
    36  O          0.69194000       0.33053000       0.89184000
    37  O          0.17846000       0.78064000       0.26465000
    38  O          0.82154000       0.28064000       0.73535000
    39  O          0.38465000      -0.00638000       0.19365000
    40  O          0.61535000       0.49362000       0.80635000
    41  O          0.12726000       0.03167000       0.12406000
    42  O          0.87274000       0.53167000       0.87594000
    43  H          0.16240000       0.00000000       0.35830000
    44  H          0.83760000       0.50000000       0.64170000
    45  H          0.26040000       0.16620000       0.24530000
    46  H          0.73960000       0.66620000       0.75470000
    47  H          0.44790000       0.11820000       0.30060000
    48  H          0.55210000       0.61820000       0.69940000
    49  H          0.47660000       0.96360000       0.42500000
    50  H          0.52340000       0.46360000       0.57500000
    51  H          0.22590000       0.08270000       0.49790000
    52  H          0.77410000       0.58270000       0.50210000
    53  H          0.23320000       0.22460000       0.63200000
    54  H          0.76680000       0.72460000       0.36800000
    55  H          0.35480000       0.48690000       0.45230000
    56  H          0.64520000      -0.01310000       0.54770000
    57  H          0.34070000       0.34360000       0.31990000
    58  H          0.65930000       0.84360000       0.68010000
    59  H          0.94490000       0.06240000       0.17530000
    60  H          0.05510000       0.56240000       0.82470000
    61  H          0.96820000       0.98000000       0.27230000
    62  H          0.03180000       0.48000000       0.72770000
    63  H         -0.00800000       0.12380000       0.27730000
    64  H          0.00800000       0.62380000       0.72270000
    65  H          0.21550000       0.71770000       0.25060000
    66  H          0.78450000       0.21770000       0.74940000
    67  Br         0.64196110       0.40998180       0.32587900
    68  Br         0.35803890       0.90998180       0.67412100
    69  Cl         0.67124000       0.17744000       0.11682000
    70  Cl         0.32876000       0.67744000       0.88318000
    71  C          0.67748000       0.01471000       0.85691000
    72  C          0.32252000       0.51471000       0.14309000
    73  C          0.73568000       0.02299000       0.96252000
    74  C          0.26432000       0.52299000       0.03748000
    75  C          0.77408000       0.88709000      -0.00497000
    76  C          0.22592000       0.38709000       0.00497000
    77  C          0.67288000       0.79849000       0.97832000
    78  C          0.32712000       0.29849000       0.02168000
    79  C          0.57511000       0.87891300       0.94571000
    80  C          0.42489000       0.37891300       0.05429000
    81  C          0.56079000       0.98141400       0.02158000
    82  C          0.43921000       0.48141400       0.97842000
    83  C          0.64691000       0.05451200       0.03288000
    84  C          0.35309000       0.55451200       0.96712000
    85  C          0.66119000       0.70631000       0.06658000
    86  C          0.33881000       0.20631000       0.93342000
    87  C          0.71981000       0.59591200       0.06809000
    88  C          0.28019000       0.09591200       0.93191000
    89  C          0.71599000       0.50871200       0.14659000
    90  C          0.28401000       0.00871200       0.85341000
    91  C          0.64951000       0.53121000       0.21909000
    92  C          0.35049000       0.03121000       0.78091000
    93  C          0.58881000       0.63861100       0.21999000
    94  C          0.41119000       0.13861100       0.78001000
    95  C          0.59721000       0.72771200       0.14389000
    96  C          0.40279000       0.22771200       0.85611000
    97  C          0.86789000       0.84479000       0.93481000
    98  C          0.13211000       0.34479000       0.06519000
    99  C          0.97489000       0.81911200       0.98881000
   100  C          0.02511000       0.31911200       0.01119000
   101  O          0.69986000       0.07297000       0.78155000
   102  O          0.30014000       0.57297000       0.21845000
   103  O          0.82586000       0.10326000       0.96775000
   104  O          0.17414000       0.60326000       0.03225000
   105  O          0.59286000       0.93217000       0.84855000
   106  O          0.40714000       0.43217000       0.15145000
   107  O          0.84576000       0.83457000       0.84264000
   108  O          0.15424000       0.33457000       0.15736000
   109  H          0.79940000       0.88750000       0.06560000
   110  H          0.20060000       0.38750000       0.93440000
   111  H          0.68410000       0.74760000       0.92110000
   112  H          0.31590000       0.24760000       0.07890000
   113  H          0.51140000       0.82750000       0.93840000
   114  H          0.48860000       0.32750000       0.06160000
   115  H          0.49740000      -0.00800000       0.05650000
   116  H          0.50260000       0.49200000       0.94350000
   117  H          0.76350000       0.57850000       0.01420000
   118  H          0.23650000       0.07850000       0.98580000
   119  H          0.75950000       0.43460000       0.14860000
   120  H          0.24050000       0.93460000       0.85140000
   121  H          0.54180000       0.65250000       0.27170000
   122  H          0.45820000       0.15250000       0.72830000
   123  H          0.55770000       0.80470000       0.14540000
   124  H          0.44230000       0.30470000       0.85460000
   125  H          0.02410000       0.79420000       0.94160000
   126  H          0.97590000       0.29420000       0.05840000
   127  H          0.96830000       0.75310000       0.03660000
   128  H          0.03170000       0.25310000       0.96340000
   129  H          0.00190000       0.89290000       0.02390000
   130  H         -0.00190000       0.39290000       0.97610000
   131  H          0.78870000       0.16630000       0.94680000
   132  H          0.21130000       0.66630000       0.05320000
   133  C          0.97361800       0.36220000       0.45701800
   134  C          0.02638200       0.86220000       0.54298200
   135  C          0.93971300       0.23671500       0.48221300
   136  C          0.06028700       0.73671500       0.51778700
   137  C          0.06591300       0.48920000       0.34361500
   138  C          0.93408700      -0.01080000       0.65638500
   139  C          0.97381100       0.55801600       0.27601500
   140  C          0.02618900       0.05801600       0.72398500
   141  O          0.02141100       0.36461200       0.36909000
   142  O          0.97858900       0.86461200       0.63091000
   143  O          0.96481100       0.45671400       0.50841000
   144  O          0.03518900       0.95671400       0.49159000
   145  H          0.90700000       0.23820000       0.54450000
   146  H          0.09300000       0.73820000       0.45550000
   147  H          0.88810000       0.20650000       0.42920000
   148  H          0.11190000       0.70650000       0.57080000
   149  H          0.00170000       0.18260000       0.48910000
   150  H         -0.00170000       0.68260000       0.51090000
   151  H          0.12840000       0.47800000       0.30750000
   152  H          0.87160000       0.97800000       0.69250000
   153  H          0.08580000       0.53510000       0.40420000
   154  H          0.91420000       0.03510000       0.59580000
   155  H         -0.00040000       0.63870000       0.25830000
   156  H          0.00040000       0.13870000       0.74170000
   157  H          0.95420000       0.51050000       0.21580000
   158  H          0.04580000       0.01050000       0.78420000
   159  H          0.91150000       0.56760000       0.31250000
   160  H          0.08850000       0.06760000       0.68750000
