data_LOBZEL
_symmetry_space_group_name_H-M    'P1'
_symmetry_Int_Tables_number       1
loop_
_symmetry_equiv_pos_site_id
_symmetry_equiv_pos_as_xyz
1 x,y,z
_cell_length_a                   13.80601
_cell_length_b                   4.21201
_cell_length_c                   12.23101
_cell_angle_alpha                90.0
_cell_angle_beta                 108.1001
_cell_angle_gamma                90.0
loop_
_atom_site_label
_atom_site_type_symbol
_atom_site_fract_x
_atom_site_fract_y
_atom_site_fract_z
     1  N          0.83228000       0.16737000       0.04743000
     2  N          0.83228000       0.83263000       0.54743000
     3  O          0.82318000       0.02028000       0.13982000
     4  O          0.82318000      -0.02028000       0.63982000
     5  C          0.92097000       0.13288000       0.02163000
     6  C          0.92097000       0.86712000       0.52163000
     7  C          0.92977000       0.28141000       0.92406000
     8  C          0.92977000       0.71859000       0.42406000
     9  H         -0.00939600       0.25682900       0.90424700
    10  H         -0.00939600       0.74317100       0.40424700
    11  C          0.85106000       0.46551200       0.85506000
    12  C          0.85106000       0.53448800       0.35506000
    13  H          0.85776700       0.56865700       0.78871700
    14  H          0.85776700       0.43134300       0.28871700
    15  C          0.76336000       0.49521100       0.88486000
    16  C          0.76336000       0.50478900       0.38486000
    17  H          0.70846500       0.61987200       0.83885300
    18  H          0.70846500       0.38012800       0.33885300
    19  C          0.75516000       0.34539000       0.98086000
    20  C          0.75516000       0.65461000       0.48086000
    21  H          0.69430800       0.36683200       0.00094900
    22  H          0.69430800       0.63316800       0.50094900
    23  C          0.00033000       0.93279000       0.09824000
    24  C          0.00033000       0.06721000       0.59824000
    25  H          0.04878900       0.86615900       0.05760800
    26  H          0.04878900       0.13384100       0.55760800
    27  H          0.96852000       0.73923300       0.11782900
    28  H          0.96852000       0.26076700       0.61782900
    29  Br         0.07536200       0.15815800       0.24140300
    30  Br         0.07536200       0.84184200       0.74140300
    31  C          0.48197000       0.80201000       0.13303000
    32  C          0.48197000       0.19799000       0.63303000
    33  C          0.47616000       0.89798900       0.24064000
    34  C          0.47616000       0.10201100       0.74064000
    35  H          0.53186400       0.00450900       0.29364200
    36  H          0.53186400      -0.00450900       0.79364200
    37  C          0.38816000       0.83488900       0.26834000
    38  C          0.38816000       0.16511100       0.76834000
    39  H          0.38355900       0.90088000       0.34082100
    40  H          0.38355900       0.09912000       0.84082100
    41  C          0.30706000       0.67798900       0.19255000
    42  C          0.30706000       0.32201100       0.69255000
    43  H          0.24738700       0.63310100       0.21262400
    44  H          0.24738700       0.36689900       0.71262400
    45  C          0.31437000       0.58768900       0.08704000
    46  C          0.31437000       0.41231100       0.58704000
    47  C          0.40067000       0.64699000       0.05594000
    48  C          0.40067000       0.35301000       0.55594000
    49  H          0.40420300       0.58246400       0.98279000
    50  H          0.40420300       0.41753600       0.48279000
    51  Cl         0.21247100       0.39067000      -0.01134120
    52  Cl         0.21247100       0.60933000       0.48865880
    53  C          0.57517000       0.85891000       0.09783000
    54  C          0.57517000       0.14109000       0.59783000
    55  O          0.65078000      -0.00749000       0.17853000
    56  O          0.65078000       0.00749000       0.67853000
    57  H          0.70319400      -0.00444200       0.15742300
    58  H          0.70319400       0.00444200       0.65742300
    59  O          0.57978000       0.78822000       0.00363000
    60  O          0.57978000       0.21178000       0.50363000
