data_LODFUH
_symmetry_space_group_name_H-M    'P1'
_symmetry_Int_Tables_number       1
loop_
_symmetry_equiv_pos_site_id
_symmetry_equiv_pos_as_xyz
1 x,y,z
_cell_length_a                   7.97595
_cell_length_b                   10.69237
_cell_length_c                   10.93697
_cell_angle_alpha                86.2475
_cell_angle_beta                 79.0535
_cell_angle_gamma                80.5485
loop_
_atom_site_label
_atom_site_type_symbol
_atom_site_fract_x
_atom_site_fract_y
_atom_site_fract_z
     1  Cl         0.40955500       0.29960300       0.14142400
     2  Cl         0.59044500       0.70039700       0.85857600
     3  S          0.67467500       0.32470300       0.87529600
     4  S          0.32532500       0.67529700       0.12470400
     5  O          0.93830140       0.74609900      -0.00323110
     6  O          0.06169860       0.25390100       0.00323110
     7  O          0.00182150       0.87003890       0.82724890
     8  O         -0.00182150       0.12996110       0.17275110
     9  H          0.06730000       0.80380000       0.80380000
    10  H          0.93270000       0.19620000       0.19620000
    11  N          0.75197180       0.41801120       0.95341860
    12  N          0.24802820       0.58198880       0.04658140
    13  H          0.84130000       0.38020000       0.97788100
    14  H          0.15870000       0.61980000       0.02211900
    15  H          0.67530000       0.45820000       0.00911900
    16  H          0.32470000       0.54180000      -0.00911900
    17  C          0.66456190       0.18104130       0.96431860
    18  C          0.33543810       0.81895870       0.03568140
    19  O          0.79836170       0.29355110       0.76464890
    20  O          0.20163830       0.70644890       0.23535110
    21  N          0.69804180       0.84443880       0.18420130
    22  N          0.30195820       0.15556120       0.81579870
    23  H          0.77130000       0.78580000       0.15211800
    24  H          0.22870000       0.21420000       0.84788200
    25  O          0.50401150       0.38689100       0.86357880
    26  O          0.49598850       0.61310900       0.13642120
    27  O          0.70185160      -0.00878100       0.40637120
    28  O          0.29814840       0.00878100       0.59362880
    29  C          0.55915190       0.17106130       0.08179150
    30  C          0.44084810       0.82893870       0.91820850
    31  C          0.91540190       0.84916860       0.94052860
    32  C          0.08459810       0.15083140       0.05947140
    33  C          0.79182180       0.95958870      -0.00802140
    34  C          0.20817820       0.04041130       0.00802140
    35  C          0.68757190       0.95202870       0.11241140
    36  C          0.31242810       0.04797130       0.88758860
    37  C          0.56951190       0.06135130       0.15486150
    38  C          0.43048810       0.93864870       0.84513850
    39  H          0.49820000       0.06051800       0.23651800
    40  H          0.50180000       0.93948200       0.76348200
    41  C          0.77944190       0.07367130       0.92155850
    42  C          0.22055810       0.92632870       0.07844150
    43  H          0.85420000       0.07961700       0.84218200
    44  H          0.14580000       0.92038300       0.15781800
    45  C          0.59842000       0.82777860       0.30771150
    46  C          0.40158000       0.17222140       0.69228850
    47  H          0.47830000       0.87138100       0.31001800
    48  H          0.52170000       0.12861900       0.68998200
    49  H          0.59830000       0.73680000       0.31911900
    50  H          0.40170000       0.26320000       0.68088100
    51  C          0.67682000       0.86678860       0.40986150
    52  C          0.32318000       0.13321140       0.59013850
    53  C          0.73262000       0.80370840       0.50879160
    54  C          0.26738000       0.19629160       0.49120840
    55  H          0.73030000       0.71680000       0.52761900
    56  H          0.26970000       0.28320000       0.47238100
    57  C          0.79832000       0.89301820       0.57164170
    58  C          0.20168000       0.10698180       0.42835830
    59  H          0.84830000       0.87780000       0.64220000
    60  H          0.15170000       0.12220000       0.35780000
    61  C          0.77742000       0.00318180       0.50669190
    62  C          0.22258000      -0.00318180       0.49330810
    63  H          0.80830000       0.08420000       0.51420000
    64  H          0.19170000       0.91580000       0.48580000
    65  O          0.19351150       0.65799890       0.74302890
    66  O          0.80648850       0.34200110       0.25697110
    67  O          0.22954180       0.49338880       0.54554880
    68  O          0.77045820       0.50661120       0.45445120
    69  C          0.33662000       0.65278840       0.64123830
    70  C          0.66338000       0.34721160       0.35876170
    71  H          0.43630000       0.58980000       0.66358100
    72  H          0.56370000       0.41020000       0.33641900
    73  H          0.37630000       0.73480000       0.62758100
    74  H          0.62370000       0.26520000       0.37241900
    75  C          0.12762000       0.53891840       0.76224830
    76  C          0.87238000       0.46108160       0.23775170
    77  H          0.02830000       0.55180000       0.82580000
    78  H          0.97170000       0.44820000       0.17420000
    79  H          0.21730000       0.47480000       0.79080000
    80  H          0.78270000       0.52520000       0.20920000
    81  C          0.08292000       0.50086820       0.64383820
    82  C          0.91708000       0.49913180       0.35616180
    83  H         -0.00370000       0.56280000       0.62280000
    84  H          0.00370000       0.43720000       0.37720000
    85  H          0.04830000       0.41680000       0.65280000
    86  H          0.95170000       0.58320000       0.34720000
    87  C          0.28723000       0.61376830       0.52476820
    88  C          0.71277000       0.38623170       0.47523180
    89  H          0.38330000       0.60680000       0.45680000
    90  H          0.61670000       0.39320000       0.54320000
    91  H          0.19130000       0.67780000       0.50180000
    92  H          0.80870000       0.32220000       0.49820000
