data_LODROP
_symmetry_space_group_name_H-M    'P1'
_symmetry_Int_Tables_number       1
loop_
_symmetry_equiv_pos_site_id
_symmetry_equiv_pos_as_xyz
1 x,y,z
_cell_length_a                   8.49762
_cell_length_b                   15.47914
_cell_length_c                   21.94503
_cell_angle_alpha                87.4412
_cell_angle_beta                 86.9032
_cell_angle_gamma                74.8682
loop_
_atom_site_label
_atom_site_type_symbol
_atom_site_fract_x
_atom_site_fract_y
_atom_site_fract_z
     1  I          0.18715400       0.67477200       0.08958200
     2  I          0.81284600       0.32522800       0.91041800
     3  I          0.85692500       0.61881300       0.85870800
     4  I          0.14307500       0.38118700       0.14129200
     5  I          0.64152500       0.91138300       0.16116200
     6  I          0.35847500       0.08861700       0.83883800
     7  I          0.64505500       0.90561300       0.35094200
     8  I          0.35494500       0.09438700       0.64905800
     9  I          0.18694400       0.65147200       0.45551200
    10  I          0.81305600       0.34852800       0.54448800
    11  I          0.72406400       0.66181200       0.68221200
    12  I          0.27593600       0.33818800       0.31778800
    13  F          0.48154000       0.59402000      -0.00263140
    14  F          0.51846000       0.40598000       0.00263140
    15  F          0.50034000       0.52812000       0.88527860
    16  F          0.49966000       0.47188000       0.11472140
    17  F          0.22975000       0.53623000       0.82594860
    18  F          0.77025000       0.46377000       0.17405140
    19  F          0.86404000       0.58752000       0.05922150
    20  F          0.13596000       0.41248000       0.94077850
    21  F          0.90095000       0.82612000       0.92226850
    22  F          0.09905000       0.17388000       0.07773150
    23  F          0.58874000       0.68892000       0.10917150
    24  F          0.41126000       0.31108000       0.89082850
    25  F          0.61625000       0.92442000       0.96884840
    26  F          0.38375000       0.07558000       0.03115160
    27  F          0.29974000       0.83052000       0.98463870
    28  F          0.70026000       0.16948000       0.01536130
    29  F          0.00714000       0.91792000       0.03424160
    30  F         -0.00714000       0.08208000       0.96575840
    31  F          0.98866000       0.00032000       0.14013160
    32  F          0.01134000      -0.00032000       0.85986840
    33  F          0.98726000      -0.00387000       0.37838170
    34  F          0.01274000       0.00387000       0.62161830
    35  F          0.98695000       0.91013000       0.48656170
    36  F          0.01305000       0.08987000       0.51343830
    37  F          0.27134000       0.82382000       0.53685140
    38  F          0.72866000       0.17618000       0.46314860
    39  F          0.58365000       0.92752000       0.53971150
    40  F          0.41635000       0.07248000       0.46028850
    41  F          0.58144000       0.68082000       0.42185140
    42  F          0.41856000       0.31918000       0.57814860
    43  F          0.84534000       0.83012000       0.59614130
    44  F          0.15466000       0.16988000       0.40385870
    45  F          0.83314000       0.58042000       0.48233150
    46  F          0.16686000       0.41958000       0.51766850
    47  F          0.05764000       0.52732000       0.72305130
    48  F          0.94236000       0.47268000       0.27694870
    49  F          0.35595000       0.47822000       0.66991150
    50  F          0.64405000       0.52178000       0.33008850
    51  F          0.41574000       0.53533000       0.55583150
    52  F          0.58426000       0.46467000       0.44416850
    53  O          0.27175000       0.95662000       0.25774150
    54  O          0.72825000       0.04338000       0.74225850
    55  C          0.19307000       0.64103000      -0.00302000
    56  C          0.80693000       0.35897000       0.00302000
    57  C          0.34387000       0.60074000       0.96898000
    58  C          0.65613000       0.39926000       0.03102000
    59  C          0.35457000       0.56704000       0.91138000
    60  C          0.64543000       0.43296000       0.08862000
    61  C          0.21467000       0.57184000       0.88118000
    62  C          0.78533000       0.42816000       0.11882000
    63  C          0.06386000       0.61453000       0.90628000
    64  C          0.93614000       0.38547000       0.09372000
    65  C          0.05127000       0.65133000       0.96438000
    66  C          0.94873000       0.34867000       0.03562000
    67  C          0.89346000       0.70393000       0.98968000
    68  C          0.10654000       0.29607000       0.01032000
    69  C          0.80567000       0.67153000       0.03702000
    70  C          0.19433000       0.32847000       0.96298000
    71  C          0.66307000       0.72294000       0.06192000
    72  C          0.33693000       0.27706000       0.93808000
    73  C          0.59327000       0.81013000       0.04042000
    74  C          0.40673000       0.18987000       0.95958000
    75  C          0.67677000       0.84193000       0.99218000
    76  C          0.32323000       0.15807000       0.00782000
    77  C          0.82507000       0.79084000       0.96838000
    78  C          0.17493000       0.20916000       0.03162000
    79  C          0.43657000       0.86543000       0.06712000
    80  C          0.56343000       0.13457000       0.93288000
    81  C          0.29397000       0.87123000       0.03782000
    82  C          0.70603000       0.12877000       0.96218000
    83  C          0.14417000       0.91684000       0.06192000
    84  C          0.85583000       0.08316000       0.93808000
    85  C          0.13787000       0.95834000       0.11682000
    86  C          0.86213000       0.04166000       0.88318000
    87  C          0.27427000       0.95913000       0.14762000
    88  C          0.72573000       0.04087000       0.85238000
    89  C          0.42586000       0.91113000       0.12122000
    90  C          0.57414000       0.08887000       0.87878000
    91  C          0.25927000       0.01294000       0.20352000
    92  C          0.74073000       0.98706000       0.79648000
    93  H          0.34650600       0.04473500       0.20190300
    94  H          0.65349400       0.95526500       0.79809700
    95  H          0.15278900       0.05832300       0.20474900
    96  H          0.84721100       0.94167700       0.79525100
    97  C          0.26827000       0.01024000       0.30982000
    98  C          0.73173000       0.98976000       0.69018000
    99  H          0.16709100       0.05965500       0.31061300
   100  H          0.83290900       0.94034500       0.68938700
   101  H          0.36248500       0.03681200       0.30660800
   102  H          0.63751500       0.96318800       0.69339200
   103  C          0.27457000       0.95383000       0.36782000
   104  C          0.72543000       0.04617000       0.63218000
   105  C          0.13287000       0.95244000       0.40022000
   106  C          0.86713000       0.04756000       0.59978000
   107  C          0.12867000       0.90864000       0.45652000
   108  C          0.87133000       0.09136000       0.54348000
   109  C          0.27428000       0.86453000       0.48142000
   110  C          0.72572000       0.13547000       0.51858000
   111  C          0.42357000       0.86023000       0.45032000
   112  C          0.57643000       0.13977000       0.54968000
   113  C          0.42077000       0.90523000       0.39392000
   114  C          0.57923000       0.09477000       0.60608000
   115  C          0.57307000       0.80733000       0.47952000
   116  C          0.42693000       0.19267000       0.52048000
   117  C          0.64617000       0.84203000       0.52422000
   118  C          0.35383000       0.15797000       0.47578000
   119  C          0.77987000       0.79153000       0.55372000
   120  C          0.22013000       0.20847000       0.44628000
   121  C          0.84647000       0.70183000       0.54162000
   122  C          0.15353000       0.29817000       0.45838000
   123  C          0.77417000       0.66663000       0.49652000
   124  C          0.22583000       0.33337000       0.50348000
   125  C          0.64397000       0.71824000       0.46622000
   126  C          0.35603000       0.28176000       0.53378000
   127  C          0.98387000       0.64423000       0.57532000
   128  C          0.01613000       0.35577000       0.42468000
   129  C          0.95307000       0.61613000       0.63602000
   130  C          0.04693000       0.38387000       0.36398000
   131  C          0.08087000       0.55893000       0.66572000
   132  C          0.91913000       0.44107000       0.33428000
   133  C          0.23387000       0.53234000       0.63912000
   134  C          0.76613000       0.46766000       0.36088000
   135  C          0.26357000       0.56234000       0.58002000
   136  C          0.73643000       0.43766000       0.41998000
   137  C          0.13967000       0.61693000       0.54772000
   138  C          0.86033000       0.38307000       0.45228000
   139  N          0.13597000       0.83404000       0.77093000
   140  N          0.86403000       0.16596000       0.22907000
   141  N          0.42176000       0.74583000       0.73472000
   142  N          0.57824000       0.25417000       0.26528000
   143  C          0.39229000       0.83964000       0.71373000
   144  C          0.60771000       0.16036000       0.28627000
   145  H          0.40177000       0.84320400       0.66852200
   146  H          0.59823000       0.15679600       0.33147800
   147  H          0.47483000       0.86628300       0.72984600
   148  H          0.52517000       0.13371700       0.27015400
   149  C          0.21889000       0.89245000       0.73613000
   150  C          0.78111000       0.10755000       0.26387000
   151  H          0.22724100       0.94171000       0.76191100
   152  H          0.77275900       0.05829000       0.23808900
   153  H          0.15441800       0.91914800       0.70047000
   154  H          0.84558200       0.08085200       0.29953000
   155  C          0.40669000       0.74375000       0.80183000
   156  C          0.59331000       0.25625000       0.19817000
   157  H          0.48943600       0.76989200       0.81831600
   158  H          0.51056400       0.23010800       0.18168400
   159  H          0.42648900       0.68093700       0.81735000
   160  H          0.57351100       0.31906300       0.18265000
   161  C          0.23491000       0.79715000       0.82344000
   162  C          0.76509000       0.20285000       0.17656000
   163  H          0.18112000       0.75742300       0.84858400
   164  H          0.81888000       0.24257700       0.15141600
   165  H          0.24369900       0.84650500       0.84905100
   166  H          0.75630100       0.15349500       0.15094900
   167  C          0.29791000       0.70675000       0.71204000
   168  C          0.70209000       0.29325000       0.28796000
   169  H          0.31705600       0.64370700       0.72693000
   170  H          0.68294400       0.35629300       0.27307000
   171  H          0.30572800       0.70737200       0.66676900
   172  H          0.69427200       0.29262800       0.33323100
   173  C          0.12901100       0.75977000       0.73376000
   174  C          0.87098900       0.24023000       0.26624000
   175  H          0.06316200       0.78316900       0.69780100
   176  H          0.93683800       0.21683100       0.30219900
   177  H          0.07425700       0.71942400       0.75777500
   178  H          0.92574300       0.28057600       0.24222500
   179  N          0.19536000       0.69433000       0.21313190
   180  N          0.80464000       0.30567000       0.78686810
   181  N          0.20886000       0.68743000       0.32962000
   182  N          0.79114000       0.31257000       0.67038000
   183  C          0.34368000       0.71635000       0.23052000
   184  C          0.65632000       0.28365000       0.76948000
   185  H          0.34586700       0.77611300       0.21313600
   186  H          0.65413300       0.22388700       0.78686400
   187  H          0.44052900       0.67191000       0.21367900
   188  H          0.55947100       0.32809000       0.78632100
   189  C          0.34938000       0.71594000       0.30082000
   190  C          0.65062000       0.28406000       0.69918000
   191  H          0.45230000       0.67450400       0.31406500
   192  H          0.54770000       0.32549600       0.68593500
   193  H          0.34630400       0.77672200       0.31396000
   194  H          0.65369600       0.22327800       0.68604000
   195  C          0.19441000       0.60494000       0.23713000
   196  C          0.80559000       0.39506000       0.76287000
   197  H          0.28496300       0.55988800       0.21710200
   198  H          0.71503700       0.44011200       0.78289800
   199  H          0.09060000       0.59165300       0.22774100
   200  H          0.90940000       0.40834700       0.77225900
   201  C          0.21369000       0.59834000       0.30672000
   202  C          0.78631000       0.40166000       0.69328000
   203  H          0.12446200       0.57587600       0.32698900
   204  H          0.87553800       0.42412400       0.67301100
   205  H          0.31871000       0.55545200       0.31631000
   206  H          0.68129000       0.44454800       0.68369000
   207  C          0.05519000       0.75965000       0.24083000
   208  C          0.94481000       0.24035000       0.75917000
   209  H          0.95247200       0.74902100       0.22747800
   210  H          0.04752800       0.25097900       0.77252200
   211  H          0.05838500       0.82093900       0.22704600
   212  H          0.94161500       0.17906100       0.77295400
   213  C          0.05919000       0.75115000       0.31123000
   214  C          0.94081000       0.24885000       0.68877000
   215  H          0.05244200       0.81036000       0.32800000
   216  H          0.94755800       0.18964000       0.67200000
   217  H          0.96370500       0.73081000       0.32788800
   218  H          0.03629500       0.26919000       0.67211200
