data_LOFDIU
_symmetry_space_group_name_H-M    'P1'
_symmetry_Int_Tables_number       1
loop_
_symmetry_equiv_pos_site_id
_symmetry_equiv_pos_as_xyz
1 x,y,z
_cell_length_a                   10.98005
_cell_length_b                   12.62706
_cell_length_c                   20.84459
_cell_angle_alpha                90.0
_cell_angle_beta                 94.26201
_cell_angle_gamma                90.0
loop_
_atom_site_label
_atom_site_type_symbol
_atom_site_fract_x
_atom_site_fract_y
_atom_site_fract_z
     1  I          0.21831300       0.23586300       0.03432715
     2  I          0.28168700       0.73586300       0.46567285
     3  I          0.78168700       0.76413700       0.96567285
     4  I          0.71831300       0.26413700       0.53432715
     5  I          0.00696300       0.91518700       0.84468185
     6  I          0.49303700       0.41518700       0.65531815
     7  I         -0.00696300       0.08481300       0.15531815
     8  I          0.50696300       0.58481300       0.34468185
     9  I          0.44749300       0.17071300       0.77766985
    10  I          0.05250700       0.67071300       0.72233015
    11  I          0.55250700       0.82928700       0.22233015
    12  I          0.94749300       0.32928700       0.27766985
    13  F          0.39523000       0.26182000       0.91634850
    14  F          0.10477000       0.76182000       0.58365150
    15  F          0.60477000       0.73818000       0.08365150
    16  F          0.89523000       0.23818000       0.41634850
    17  F          0.04603000       0.07083000       0.96336860
    18  F          0.45397000       0.57083000       0.53663140
    19  F          0.95397000       0.92917000       0.03663140
    20  F          0.54603000       0.42917000       0.46336860
    21  F          0.22323000       0.01382000       0.76834870
    22  F          0.27677000       0.51382000       0.73165130
    23  F          0.77677000       0.98618000       0.23165130
    24  F          0.72323000       0.48618000       0.26834870
    25  C          0.22024000       0.16854000       0.94208000
    26  C          0.27976000       0.66854000       0.55792000
    27  C          0.77976000       0.83146000       0.05792000
    28  C          0.72024000       0.33146000       0.44208000
    29  C          0.13334000       0.09314000       0.92318000
    30  C          0.36666000       0.59314000       0.57682000
    31  C          0.86666000       0.90686000       0.07682000
    32  C          0.63334000       0.40686000       0.42318000
    33  C          0.13174000       0.03914000       0.86538000
    34  C          0.36826000       0.53914000       0.63462000
    35  C          0.86826000       0.96086000       0.13462000
    36  C          0.63174000       0.46086000       0.36538000
    37  C          0.22084000       0.06504000       0.82498000
    38  C          0.27916000       0.56504000       0.67502000
    39  C          0.77916000       0.93496000       0.17502000
    40  C          0.72084000       0.43496000       0.32498000
    41  C          0.31034000       0.13974000       0.84008000
    42  C          0.18966000       0.63974000       0.65992000
    43  C          0.68966000       0.86026000       0.15992000
    44  C          0.81034000       0.36026000       0.34008000
    45  C          0.30774000       0.19024000       0.89968000
    46  C          0.19226000       0.69024000       0.60032000
    47  C          0.69226000       0.80976000       0.10032000
    48  C          0.80774000       0.30976000       0.39968000
    49  Br         0.82772600       0.70549600       0.81386800
    50  Br         0.67227400       0.20549600       0.68613200
    51  Br         0.17227400       0.29450400       0.18613200
    52  Br         0.32772600       0.79450400       0.31386800
    53  N          0.87124000       0.35543000       0.85198000
    54  N          0.62876000       0.85543000       0.64802000
    55  N          0.12876000       0.64457000       0.14802000
    56  N          0.37124000       0.14457000       0.35198000
    57  C          0.97886000       0.37576000       0.89617000
    58  C          0.52114000       0.87576000       0.60383000
    59  C          0.02114000       0.62424000       0.10383000
    60  C          0.47886000       0.12424000       0.39617000
    61  H          0.04060000       0.32310000       0.88880000
    62  H          0.45940000       0.82310000       0.61120000
    63  H          0.95940000       0.67690000       0.11120000
    64  H          0.54060000       0.17690000       0.38880000
    65  H          0.95600000       0.36680000       0.94000000
    66  H          0.54400000       0.86680000       0.56000000
    67  H          0.04400000       0.63320000       0.06000000
    68  H          0.45600000       0.13320000       0.44000000
    69  C          0.03336000       0.48376000       0.88997000
    70  C          0.46664000       0.98376000       0.61003000
    71  C          0.96664000       0.51624000       0.11003000
    72  C          0.53336000       0.01624000       0.38997000
    73  H          0.97210000       0.53630000       0.89830000
    74  H          0.52790000       0.03630000       0.60170000
    75  H          0.02790000       0.46370000       0.10170000
    76  H          0.47210000       0.96370000       0.39830000
    77  H          0.05460000       0.49330000       0.84600000
    78  H          0.44540000      -0.00670000       0.65400000
    79  H          0.94540000       0.50670000       0.15400000
    80  H          0.55460000       0.00670000       0.34600000
    81  C          0.14855000       0.50375000       0.93607000
    82  C          0.35145000       0.00375000       0.56393000
    83  C          0.85145000       0.49625000       0.06393000
    84  C          0.64855000      -0.00375000       0.43607000
    85  H          0.12950000       0.49130000       0.98020000
    86  H          0.37050000      -0.00870000       0.51980000
    87  H          0.87050000       0.50870000       0.01980000
    88  H          0.62950000       0.00870000       0.48020000
    89  H          0.21280000       0.45500000       0.92610000
    90  H          0.28720000       0.95500000       0.57390000
    91  H          0.78720000       0.54500000       0.07390000
    92  H          0.71280000       0.04500000       0.42610000
    93  C          0.19077000       0.61366000       0.92906000
    94  C          0.30923000       0.11366000       0.57094000
    95  C          0.80923000       0.38634000       0.07094000
    96  C          0.69077000       0.88634000       0.42906000
    97  H          0.26270000       0.62520000       0.95720000
    98  H          0.23730000       0.12520000       0.54280000
    99  H          0.73730000       0.37480000       0.04280000
   100  H          0.76270000       0.87480000       0.45720000
   101  H          0.12770000       0.66160000       0.94000000
   102  H          0.37230000       0.16160000       0.56000000
   103  H          0.87230000       0.33840000       0.06000000
   104  H          0.62770000       0.83840000       0.44000000
   105  H          0.20920000       0.62560000       0.88530000
   106  H          0.29080000       0.12560000       0.61470000
   107  H          0.79080000       0.37440000       0.11470000
   108  H          0.70920000       0.87440000       0.38530000
   109  C          0.76556000       0.43235000       0.86937000
   110  C          0.73444000       0.93235000       0.63063000
   111  C          0.23444000       0.56765000       0.13063000
   112  C          0.26556000       0.06765000       0.36937000
   113  H          0.75940000       0.42900000       0.91560000
   114  H          0.74060000       0.92900000       0.58440000
   115  H          0.24060000       0.57100000       0.08440000
   116  H          0.25940000       0.07100000       0.41560000
   117  H          0.78950000       0.50400000       0.85930000
   118  H          0.71050000       0.00400000       0.64070000
   119  H          0.21050000       0.49600000       0.14070000
   120  H          0.28950000      -0.00400000       0.35930000
   121  C          0.64156000       0.41315000       0.83746000
   122  C          0.85844000       0.91315000       0.66254000
   123  C          0.35844000       0.58685000       0.16254000
   124  C          0.14156000       0.08685000       0.33746000
   125  H          0.64770000       0.40430000       0.79160000
   126  H          0.85230000       0.90430000       0.70840000
   127  H          0.35230000       0.59570000       0.20840000
   128  H          0.14770000       0.09570000       0.29160000
   129  H          0.60870000       0.34810000       0.85400000
   130  H          0.89130000       0.84810000       0.64600000
   131  H          0.39130000       0.65190000       0.14600000
   132  H          0.10870000       0.15190000       0.35400000
   133  C          0.55755000       0.50085000       0.84827000
   134  C          0.94245000       0.00085000       0.65173000
   135  C          0.44245000       0.49915000       0.15173000
   136  C          0.05755000      -0.00085000       0.34827000
   137  H          0.48180000       0.48880000       0.82230000
   138  H          0.01820000       0.98880000       0.67770000
   139  H          0.51820000       0.51120000       0.17770000
   140  H          0.98180000       0.01120000       0.32230000
   141  H          0.59290000       0.56590000       0.83340000
   142  H          0.90710000       0.06590000       0.66660000
   143  H          0.40710000       0.43410000       0.16660000
   144  H          0.09290000       0.93410000       0.33340000
   145  C          0.52788000       0.51617000       0.91805000
   146  C          0.97212000       0.01617000       0.58195000
   147  C          0.47212000       0.48383000       0.08195000
   148  C          0.02788000       0.98383000       0.41805000
   149  H          0.47360000       0.57530000       0.92080000
   150  H          0.02640000       0.07530000       0.57920000
   151  H          0.52640000       0.42470000       0.07920000
   152  H          0.97360000       0.92470000       0.42080000
   153  H          0.60190000       0.52930000       0.94430000
   154  H          0.89810000       0.02930000       0.55570000
   155  H          0.39810000       0.47070000       0.05570000
   156  H          0.10190000       0.97070000       0.44430000
   157  H          0.48930000       0.45340000       0.93290000
   158  H          0.01070000       0.95340000       0.56710000
   159  H          0.51070000       0.54660000       0.06710000
   160  H         -0.01070000       0.04660000       0.43290000
   161  C          0.82566000       0.23965000       0.85907000
   162  C          0.67434000       0.73965000       0.64093000
   163  C          0.17434000       0.76035000       0.14093000
   164  C          0.32566000       0.26035000       0.35907000
   165  H          0.76140000       0.22690000       0.82550000
   166  H          0.73860000       0.72690000       0.67450000
   167  H          0.23860000       0.77310000       0.17450000
   168  H          0.26140000       0.27310000       0.32550000
   169  H          0.89260000       0.19240000       0.85120000
   170  H          0.60740000       0.69240000       0.64880000
   171  H          0.10740000       0.80760000       0.14880000
   172  H          0.39260000       0.30760000       0.35120000
   173  C          0.77916000       0.20925000       0.92026000
   174  C          0.72084000       0.70925000       0.57974000
   175  C          0.22084000       0.79075000       0.07974000
   176  C          0.27916000       0.29075000       0.42026000
   177  H          0.71630000       0.25940000       0.93020000
   178  H          0.78370000       0.75940000       0.56980000
   179  H          0.28370000       0.74060000       0.06980000
   180  H          0.21630000       0.24060000       0.43020000
   181  H          0.84510000       0.21540000       0.95370000
   182  H          0.65490000       0.71540000       0.54630000
   183  H          0.15490000       0.78460000       0.04630000
   184  H          0.34510000       0.28460000       0.45370000
   185  C          0.72727000       0.10025000       0.92286000
   186  C          0.77273000       0.60025000       0.57714000
   187  C          0.27273000       0.89975000       0.07714000
   188  C          0.22727000       0.39975000       0.42286000
   189  H          0.67540000       0.08950000       0.88370000
   190  H          0.82460000       0.58950000       0.61630000
   191  H          0.32460000       0.91050000       0.11630000
   192  H          0.17540000       0.41050000       0.38370000
   193  H          0.79460000       0.05070000       0.92190000
   194  H          0.70540000       0.55070000       0.57810000
   195  H          0.20540000       0.94930000       0.07810000
   196  H          0.29460000       0.44930000       0.42190000
   197  C          0.65707000       0.07066000       0.97635000
   198  C          0.84293000       0.57066000       0.52365000
   199  C          0.34293000       0.92934000       0.02365000
   200  C          0.15707000       0.42934000       0.47635000
   201  H          0.63000000      -0.00140000       0.97110000
   202  H          0.87000000       0.49860000       0.52890000
   203  H          0.37000000       0.00140000       0.02890000
   204  H          0.13000000       0.50140000       0.47110000
   205  H          0.58740000       0.11640000       0.97760000
   206  H          0.91260000       0.61640000       0.52240000
   207  H          0.41260000       0.88360000       0.02240000
   208  H          0.08740000       0.38360000       0.47760000
   209  H          0.70720000       0.07720000       0.01590000
   210  H          0.79280000       0.57720000       0.48410000
   211  H          0.29280000       0.92280000       0.98410000
   212  H          0.20720000       0.42280000       0.51590000
   213  C          0.89196000       0.37405000       0.78207000
   214  C          0.60804000       0.87405000       0.71793000
   215  C          0.10804000       0.62595000       0.21793000
   216  C          0.39196000       0.12595000       0.28207000
   217  H          0.81890000       0.35220000       0.75650000
   218  H          0.68110000       0.85220000       0.74350000
   219  H          0.18110000       0.64780000       0.24350000
   220  H          0.31890000       0.14780000       0.25650000
   221  H          0.90130000       0.44960000       0.77580000
   222  H          0.59870000       0.94960000       0.72420000
   223  H          0.09870000       0.55040000       0.22420000
   224  H          0.40130000       0.05040000       0.27580000
   225  C         -0.00374000       0.32097000       0.75676000
   226  C          0.50374000       0.82097000       0.74324000
   227  C          0.00374000       0.67903000       0.24324000
   228  C          0.49626000       0.17903000       0.25676000
   229  H         -0.01060000       0.24560000       0.76510000
   230  H          0.51060000       0.74560000       0.73490000
   231  H          0.01060000       0.75440000       0.23490000
   232  H          0.48940000       0.25440000       0.26510000
   233  H          0.06990000       0.34580000       0.78070000
   234  H          0.43010000       0.84580000       0.71930000
   235  H          0.93010000       0.65420000       0.21930000
   236  H          0.56990000       0.15420000       0.28070000
   237  C          0.01087000       0.33577000       0.68737000
   238  C          0.48913000       0.83577000       0.81263000
   239  C         -0.01087000       0.66423000       0.31263000
   240  C          0.51087000       0.16423000       0.18737000
   241  H          0.93770000       0.30830000       0.66410000
   242  H          0.56230000       0.80830000       0.83590000
   243  H          0.06230000       0.69170000       0.33590000
   244  H          0.43770000       0.19170000       0.16410000
   245  H          0.01260000       0.41140000       0.67940000
   246  H          0.48740000       0.91140000       0.82060000
   247  H         -0.01260000       0.58860000       0.32060000
   248  H          0.51260000       0.08860000       0.17940000
   249  C          0.11499000       0.28968000       0.65875000
   250  C          0.38501000       0.78968000       0.84125000
   251  C          0.88501000       0.71032000       0.34125000
   252  C          0.61499000       0.21032000       0.15875000
   253  H          0.11180000       0.30760000       0.61400000
   254  H          0.38820000       0.80760000       0.88600000
   255  H          0.88820000       0.69240000       0.38600000
   256  H          0.61180000       0.19240000       0.11400000
   257  H          0.11270000       0.21390000       0.66340000
   258  H          0.38730000       0.71390000       0.83660000
   259  H          0.88730000       0.78610000       0.33660000
   260  H          0.61270000       0.28610000       0.16340000
   261  H          0.18890000       0.31660000       0.68010000
   262  H          0.31110000       0.81660000       0.81990000
   263  H          0.81110000       0.68340000       0.31990000
   264  H          0.68890000       0.18340000       0.18010000
