data_LOFDOA
_symmetry_space_group_name_H-M    'P1'
_symmetry_Int_Tables_number       1
loop_
_symmetry_equiv_pos_site_id
_symmetry_equiv_pos_as_xyz
1 x,y,z
_cell_length_a                   11.67135
_cell_length_b                   12.04146
_cell_length_c                   20.27229
_cell_angle_alpha                90.0
_cell_angle_beta                 93.83381
_cell_angle_gamma                90.0
loop_
_atom_site_label
_atom_site_type_symbol
_atom_site_fract_x
_atom_site_fract_y
_atom_site_fract_z
     1  I          0.20186618       0.23867917       0.04758110
     2  I          0.29813382       0.73867917       0.45241890
     3  I          0.79813382       0.76132083       0.95241890
     4  I          0.70186618       0.26132083       0.54758110
     5  I          0.01445618       0.92196382       0.83943090
     6  I          0.48554382       0.42196382       0.66056910
     7  I          0.98554382       0.07803618       0.16056910
     8  I          0.51445618       0.57803618       0.33943090
     9  I          0.44595118       0.17973218       0.79053190
    10  I          0.05404882       0.67973218       0.70946810
    11  I          0.55404882       0.82026782       0.20946810
    12  I          0.94595118       0.32026782       0.29053190
    13  F          0.38494170       0.26653160       0.93441100
    14  F          0.11505830       0.76653160       0.56558900
    15  F          0.61505830       0.73346840       0.06558900
    16  F          0.88494170       0.23346840       0.43441100
    17  F          0.03832170       0.08218160       0.96348100
    18  F          0.46167830       0.58218160       0.53651900
    19  F          0.96167830       0.91781840       0.03651900
    20  F          0.53832170       0.41781840       0.46348100
    21  F          0.23122170       0.02199170       0.77118100
    22  F          0.26877830       0.52199170       0.72881900
    23  F          0.76877830       0.97800830       0.22881900
    24  F          0.73122170       0.47800830       0.27118100
    25  C          0.21163000       0.17583000       0.95130850
    26  C          0.28837000       0.67583000       0.54869150
    27  C          0.78837000       0.82417000       0.04869150
    28  C          0.71163000       0.32417000       0.45130850
    29  C          0.12853000       0.10223000       0.92694850
    30  C          0.37147000       0.60223000       0.57305150
    31  C          0.87147000       0.89777000       0.07305150
    32  C          0.62853000       0.39777000       0.42694850
    33  C          0.13223000       0.04773000       0.86705850
    34  C          0.36777000       0.54773000       0.63294150
    35  C          0.86777000       0.95227000       0.13294150
    36  C          0.63223000       0.45227000       0.36705850
    37  C          0.22413000       0.07293000       0.82981850
    38  C          0.27587000       0.57293000       0.67018150
    39  C          0.77587000       0.92707000       0.17018150
    40  C          0.72413000       0.42707000       0.32981850
    41  C          0.30963000       0.14683000       0.85044850
    42  C          0.19037000       0.64683000       0.64955150
    43  C          0.69037000       0.85317000       0.14955150
    44  C          0.80963000       0.35317000       0.35044850
    45  C          0.30123000       0.19663000       0.91178850
    46  C          0.19877000       0.69663000       0.58821150
    47  C          0.69877000       0.80337000       0.08821150
    48  C          0.80123000       0.30337000       0.41178850
    49  Cl         0.84987300       0.71467400       0.80224600
    50  Cl         0.65012700       0.21467400       0.69775400
    51  Cl         0.15012700       0.28532600       0.19775400
    52  Cl         0.34987300       0.78532600       0.30224600
    53  N          0.86602000       0.36112000       0.84772880
    54  N          0.63398000       0.86112000       0.65227120
    55  N          0.13398000       0.63888000       0.15227120
    56  N          0.36602000       0.13888000       0.34772880
    57  C          0.97323000       0.37683000       0.89336850
    58  C          0.52677000       0.87683000       0.60663150
    59  C          0.02677000       0.62317000       0.10663150
    60  C          0.47323000       0.12317000       0.39336850
    61  H          0.02880000       0.32050000       0.88330000
    62  H          0.47120000       0.82050000       0.61670000
    63  H          0.97120000       0.67950000       0.11670000
    64  H          0.52880000       0.17950000       0.38330000
    65  H          0.95340000       0.36520000       0.93860000
    66  H          0.54660000       0.86520000       0.56140000
    67  H          0.04660000       0.63480000       0.06140000
    68  H          0.45340000       0.13480000       0.43860000
    69  C          0.02913000       0.49053000       0.88865830
    70  C          0.47087000      -0.00947000       0.61134170
    71  C          0.97087000       0.50947000       0.11134170
    72  C          0.52913000       0.00947000       0.38865830
    73  H          0.04300000       0.50570000       0.84290000
    74  H          0.45700000       0.00570000       0.65710000
    75  H          0.95700000       0.49430000       0.15710000
    76  H          0.54300000      -0.00570000       0.34290000
    77  H          0.97720000       0.54680000       0.90330000
    78  H          0.52280000       0.04680000       0.59670000
    79  H          0.02280000       0.45320000       0.09670000
    80  H          0.47720000       0.95320000       0.40330000
    81  C          0.14203000       0.49683000       0.93049830
    82  C          0.35797000      -0.00317000       0.56950170
    83  C          0.85797000       0.50317000       0.06950170
    84  C          0.64203000       0.00317000       0.43049830
    85  H          0.12800000       0.48300000       0.97640000
    86  H          0.37200000       0.98300000       0.52360000
    87  H          0.87200000       0.51700000       0.02360000
    88  H          0.62800000       0.01700000       0.47640000
    89  H          0.19360000       0.43970000       0.91640000
    90  H          0.30640000       0.93970000       0.58360000
    91  H          0.80640000       0.56030000       0.08360000
    92  H          0.69360000       0.06030000       0.41640000
    93  C          0.19844000       0.60983000       0.92460810
    94  C          0.30156000       0.10983000       0.57539190
    95  C          0.80156000       0.39017000       0.07539190
    96  C          0.69844000       0.89017000       0.42460810
    97  H          0.26710000       0.61270000       0.95340000
    98  H          0.23290000       0.11270000       0.54660000
    99  H          0.73290000       0.38730000       0.04660000
   100  H          0.76710000       0.88730000       0.45340000
   101  H          0.14640000       0.66670000       0.93690000
   102  H          0.35360000       0.16670000       0.56310000
   103  H          0.85360000       0.33330000       0.06310000
   104  H          0.64640000       0.83330000       0.43690000
   105  H          0.21750000       0.62130000       0.87980000
   106  H          0.28250000       0.12130000       0.62020000
   107  H          0.78250000       0.37870000       0.12020000
   108  H          0.71750000       0.87870000       0.37980000
   109  C          0.77703000       0.44543000       0.86648840
   110  C          0.72297000       0.94543000       0.63351160
   111  C          0.22297000       0.55457000       0.13351160
   112  C          0.27703000       0.05457000       0.36648840
   113  H          0.76550000       0.43700000       0.91320000
   114  H          0.73450000       0.93700000       0.58680000
   115  H          0.23450000       0.56300000       0.08680000
   116  H          0.26550000       0.06300000       0.41320000
   117  H          0.80770000       0.51930000       0.86020000
   118  H          0.69230000       0.01930000       0.63980000
   119  H          0.19230000       0.48070000       0.13980000
   120  H          0.30770000       0.98070000       0.36020000
   121  C          0.66153000       0.43733000       0.82822830
   122  C          0.83847000       0.93733000       0.67177170
   123  C          0.33847000       0.56267000       0.17177170
   124  C          0.16153000       0.06267000       0.32822830
   125  H          0.62760000       0.36530000       0.83600000
   126  H          0.87240000       0.86530000       0.66400000
   127  H          0.37240000       0.63470000       0.16400000
   128  H          0.12760000       0.13470000       0.33600000
   129  H          0.67170000       0.44380000       0.78130000
   130  H          0.82830000       0.94380000       0.71870000
   131  H          0.32830000       0.55620000       0.21870000
   132  H          0.17170000       0.05620000       0.28130000
   133  C          0.58083000       0.52903000       0.84940830
   134  C          0.91917000       0.02903000       0.65059170
   135  C          0.41917000       0.47097000       0.15059170
   136  C          0.08083000       0.97097000       0.34940830
   137  H          0.61800000       0.60030000       0.84440000
   138  H          0.88200000       0.10030000       0.65560000
   139  H          0.38200000       0.39970000       0.15560000
   140  H          0.11800000       0.89970000       0.34440000
   141  H          0.51170000       0.52820000       0.82000000
   142  H         -0.01170000       0.02820000       0.68000000
   143  H          0.48830000       0.47180000       0.18000000
   144  H          0.01170000       0.97180000       0.32000000
   145  C          0.54713000       0.51803000       0.92033820
   146  C          0.95287000       0.01803000       0.57966180
   147  C          0.45287000       0.48197000       0.07966180
   148  C          0.04713000       0.98197000       0.42033820
   149  H          0.49230000       0.57470000       0.92920000
   150  H          0.00770000       0.07470000       0.57080000
   151  H          0.50770000       0.42530000       0.07080000
   152  H         -0.00770000       0.92530000       0.42920000
   153  H          0.61400000       0.52620000       0.95010000
   154  H          0.88600000       0.02620000       0.54990000
   155  H          0.38600000       0.47380000       0.04990000
   156  H          0.11400000       0.97380000       0.45010000
   157  H          0.51350000       0.44630000       0.92640000
   158  H          0.98650000       0.94630000       0.57360000
   159  H          0.48650000       0.55370000       0.07360000
   160  H          0.01350000       0.05370000       0.42640000
   161  C          0.82313000       0.24173000       0.85390840
   162  C          0.67687000       0.74173000       0.64609160
   163  C          0.17687000       0.75827000       0.14609160
   164  C          0.32313000       0.25827000       0.35390840
   165  H          0.76640000       0.22750000       0.81770000
   166  H          0.73360000       0.72750000       0.68230000
   167  H          0.23360000       0.77250000       0.18230000
   168  H          0.26640000       0.27250000       0.31770000
   169  H          0.88710000       0.19180000       0.84860000
   170  H          0.61290000       0.69180000       0.65140000
   171  H          0.11290000       0.80820000       0.15140000
   172  H          0.38710000       0.30820000       0.34860000
   173  C          0.77003000       0.21283000       0.91841830
   174  C          0.72997000       0.71283000       0.58158170
   175  C          0.22997000       0.78717000       0.08158170
   176  C          0.27003000       0.28717000       0.41841830
   177  H          0.82660000       0.22230000       0.95530000
   178  H          0.67340000       0.72230000       0.54470000
   179  H          0.17340000       0.77770000       0.04470000
   180  H          0.32660000       0.27770000       0.45530000
   181  H          0.70600000       0.26200000       0.92500000
   182  H          0.79400000       0.76200000       0.57500000
   183  H          0.29400000       0.73800000       0.07500000
   184  H          0.20600000       0.23800000       0.42500000
   185  C          0.72863000       0.09273000       0.91565820
   186  C          0.77137000       0.59273000       0.58434180
   187  C          0.27137000       0.90727000       0.08434180
   188  C          0.22863000       0.40727000       0.41565820
   189  H          0.79450000       0.04350000       0.91770000
   190  H          0.70550000       0.54350000       0.58230000
   191  H          0.20550000       0.95650000       0.08230000
   192  H          0.29450000       0.45650000       0.41770000
   193  H          0.68490000       0.07990000       0.87400000
   194  H          0.81510000       0.57990000       0.62600000
   195  H          0.31510000       0.92010000       0.12600000
   196  H          0.18490000       0.42010000       0.37400000
   197  C          0.65363000       0.06573000       0.97268000
   198  C          0.84637000       0.56573000       0.52732000
   199  C          0.34637000       0.93427000       0.02732000
   200  C          0.15363000       0.43427000       0.47268000
   201  H          0.62500000      -0.00880000       0.96780000
   202  H          0.87500000       0.49120000       0.53220000
   203  H          0.37500000       0.00880000       0.03220000
   204  H          0.12500000       0.50880000       0.46780000
   205  H          0.59030000       0.11660000       0.97210000
   206  H          0.90970000       0.61660000       0.52790000
   207  H          0.40970000       0.88340000       0.02790000
   208  H          0.09030000       0.38340000       0.47210000
   209  H          0.69850000       0.07230000       0.01390000
   210  H          0.80150000       0.57230000       0.48610000
   211  H          0.30150000       0.92770000       0.98610000
   212  H          0.19850000       0.42770000       0.51390000
   213  C          0.89193000       0.38143000       0.77585850
   214  C          0.60807000       0.88143000       0.72414150
   215  C          0.10807000       0.61857000       0.22414150
   216  C          0.39193000       0.11857000       0.27585850
   217  H          0.82530000       0.35950000       0.74770000
   218  H          0.67470000       0.85950000       0.75230000
   219  H          0.17470000       0.64050000       0.25230000
   220  H          0.32530000       0.14050000       0.24770000
   221  H          0.90300000       0.46050000       0.76980000
   222  H          0.59700000       0.96050000       0.73020000
   223  H          0.09700000       0.53950000       0.23020000
   224  H          0.40300000       0.03950000       0.26980000
   225  C         -0.00417000       0.32123000       0.75283840
   226  C          0.50417000       0.82123000       0.74716160
   227  C          0.00417000       0.67877000       0.24716160
   228  C          0.49583000       0.17877000       0.25283840
   229  H         -0.01090000       0.24230000       0.76160000
   230  H          0.51090000       0.74230000       0.73840000
   231  H          0.01090000       0.75770000       0.23840000
   232  H          0.48910000       0.25770000       0.26160000
   233  H          0.06470000       0.34840000       0.77700000
   234  H          0.43530000       0.84840000       0.72300000
   235  H          0.93530000       0.65160000       0.22300000
   236  H          0.56470000       0.15160000       0.27700000
   237  C          0.00483000       0.33983000       0.67895830
   238  C          0.49517000       0.83983000       0.82104170
   239  C         -0.00483000       0.66017000       0.32104170
   240  C          0.50483000       0.16017000       0.17895830
   241  H          0.93750000       0.30910000       0.65490000
   242  H          0.56250000       0.80910000       0.84510000
   243  H          0.06250000       0.69090000       0.34510000
   244  H          0.43750000       0.19090000       0.15490000
   245  H          0.00650000       0.41890000       0.67010000
   246  H          0.49350000       0.91890000       0.82990000
   247  H         -0.00650000       0.58110000       0.32990000
   248  H          0.50650000       0.08110000       0.17010000
   249  C          0.11224000       0.28593000       0.65458000
   250  C          0.38776000       0.78593000       0.84542000
   251  C          0.88776000       0.71407000       0.34542000
   252  C          0.61224000       0.21407000       0.15458000
   253  H          0.11590000       0.30020000       0.60820000
   254  H          0.38410000       0.80020000       0.89180000
   255  H          0.88410000       0.69980000       0.39180000
   256  H          0.61590000       0.19980000       0.10820000
   257  H          0.10940000       0.20720000       0.66190000
   258  H          0.39060000       0.70720000       0.83810000
   259  H          0.89060000       0.79280000       0.33810000
   260  H          0.60940000       0.29280000       0.16190000
   261  H          0.17900000       0.31620000       0.67830000
   262  H          0.32100000       0.81620000       0.82170000
   263  H          0.82100000       0.68380000       0.32170000
   264  H          0.67900000       0.18380000       0.17830000
