data_LOFDEQ
_symmetry_space_group_name_H-M    'P1'
_symmetry_Int_Tables_number       1
loop_
_symmetry_equiv_pos_site_id
_symmetry_equiv_pos_as_xyz
1 x,y,z
_cell_length_a                   10.1532
_cell_length_b                   17.1183
_cell_length_c                   17.6574
_cell_angle_alpha                90.0
_cell_angle_beta                 105.263
_cell_angle_gamma                90.0
loop_
_atom_site_label
_atom_site_type_symbol
_atom_site_fract_x
_atom_site_fract_y
_atom_site_fract_z
     1  C          0.07862000       0.63238150       0.14583140
     2  C          0.92138000       0.13238150       0.35416860
     3  C          0.92138000       0.36761850       0.85416860
     4  C          0.07862000       0.86761850       0.64583140
     5  C          0.15282000       0.67484140       0.20904140
     6  C          0.84718000       0.17484140       0.29095860
     7  C          0.84718000       0.32515860       0.79095860
     8  C          0.15282000       0.82515860       0.70904140
     9  C          0.28222000       0.65370150       0.25335140
    10  C          0.71778000       0.15370150       0.24664860
    11  C          0.71778000       0.34629850       0.74664860
    12  C          0.28222000       0.84629850       0.75335140
    13  C          0.33732000       0.58574150       0.23107140
    14  C          0.66268000       0.08574150       0.26892860
    15  C          0.66268000       0.41425850       0.76892860
    16  C          0.33732000       0.91425850       0.73107140
    17  C          0.26773000       0.53955150       0.16896150
    18  C          0.73227000       0.03955150       0.33103850
    19  C          0.73227000       0.46044850       0.83103850
    20  C          0.26773000       0.96044850       0.66896150
    21  C          0.13902000       0.56452140       0.12770140
    22  C          0.86098000       0.06452140       0.37229860
    23  C          0.86098000       0.43547860       0.87229860
    24  C          0.13902000       0.93547860       0.62770140
    25  I          0.88008715       0.66203890       0.07968490
    26  I          0.11991285       0.16203890       0.42031510
    27  I          0.11991285       0.33796110       0.92031510
    28  I          0.88008715       0.83796110       0.57968490
    29  I          0.39220315       0.72141190       0.34862790
    30  I          0.60779685       0.22141190       0.15137210
    31  I          0.60779685       0.27858810       0.65137210
    32  I          0.39220315       0.77858810       0.84862790
    33  I          0.35015117       0.44011210       0.13017810
    34  I          0.64984883       0.94011210       0.36982190
    35  I          0.64984883       0.55988790       0.86982190
    36  I          0.35015117       0.05988790       0.63017810
    37  F          0.09622150       0.74045900       0.22959900
    38  F          0.90377850       0.24045900       0.27040100
    39  F          0.90377850       0.25954100       0.77040100
    40  F          0.09622150       0.75954100       0.72959900
    41  F          0.46321150       0.56383900       0.27244900
    42  F          0.53678850       0.06383900       0.22755100
    43  F          0.53678850       0.43616100       0.72755100
    44  F          0.46321150       0.93616100       0.77244900
    45  F          0.07063150       0.52174900       0.06674800
    46  F          0.92936850       0.02174900       0.43325200
    47  F          0.92936850       0.47825100       0.93325200
    48  F          0.07063150       0.97825100       0.56674800
    49  Cl         0.42182600       0.30859400       0.01205300
    50  Cl         0.57817400       0.80859400       0.48794700
    51  Cl         0.57817400       0.69140600       0.98794700
    52  Cl         0.42182600       0.19140600       0.51205300
    53  P          0.08761600       0.96041400       0.17870400
    54  P          0.91238400       0.46041400       0.32129600
    55  P          0.91238400       0.03958600       0.82129600
    56  P          0.08761600       0.53958600       0.67870400
    57  C          0.14162000       0.05634150       0.15878150
    58  C          0.85838000       0.55634150       0.34121850
    59  C          0.85838000       0.94365850       0.84121850
    60  C          0.14162000       0.44365850       0.65878150
    61  C          0.11343000       0.11905160       0.20210160
    62  C          0.88657000       0.61905160       0.29789840
    63  C          0.88657000       0.88094840       0.79789840
    64  C          0.11343000       0.38094840       0.70210160
    65  H          0.07020000       0.11070000       0.24180000
    66  H          0.92980000       0.61070000       0.25820000
    67  H          0.92980000       0.88930000       0.75820000
    68  H          0.07020000       0.38930000       0.74180000
    69  C          0.14993000       0.19406160       0.18596180
    70  C          0.85007000       0.69406160       0.31403820
    71  C          0.85007000       0.80593840       0.81403820
    72  C          0.14993000       0.30593840       0.68596180
    73  H          0.13010000       0.23620000       0.21440000
    74  H          0.86990000       0.73620000       0.28560000
    75  H          0.86990000       0.76380000       0.78560000
    76  H          0.13010000       0.26380000       0.71440000
    77  C          0.21573000       0.20639170       0.12760170
    78  C          0.78427000       0.70639170       0.37239830
    79  C          0.78427000       0.79360830       0.87239830
    80  C          0.21573000       0.29360830       0.62760170
    81  H          0.23950000       0.25680000       0.11660000
    82  H          0.76050000       0.75680000       0.38340000
    83  H          0.76050000       0.74320000       0.88340000
    84  H          0.23950000       0.24320000       0.61660000
    85  C          0.24633000       0.14378170       0.08554160
    86  C          0.75367000       0.64378170       0.41445840
    87  C          0.75367000       0.85621830       0.91445840
    88  C          0.24633000       0.35621830       0.58554160
    89  H          0.29210000       0.15230000       0.04710000
    90  H          0.70790000       0.65230000       0.45290000
    91  H          0.70790000       0.84770000       0.95290000
    92  H          0.29210000       0.34770000       0.54710000
    93  C          0.20923000       0.06852160       0.10025150
    94  C          0.79077000       0.56852160       0.39974850
    95  C          0.79077000       0.93147840       0.89974850
    96  C          0.20923000       0.43147840       0.60025150
    97  H          0.22900000       0.02660000       0.07160000
    98  H          0.77100000       0.52660000       0.42840000
    99  H          0.77100000       0.97340000       0.92840000
   100  H          0.22900000       0.47340000       0.57160000
   101  C          0.90603000       0.95103150       0.14007150
   102  C          0.09397000       0.45103150       0.35992850
   103  C          0.09397000       0.04896850       0.85992850
   104  C          0.90603000       0.54896850       0.64007150
   105  C          0.82253000       0.01684150       0.11735150
   106  C          0.17747000       0.51684150       0.38264850
   107  C          0.17747000       0.98315850       0.88264850
   108  C          0.82253000       0.48315850       0.61735150
   109  H          0.86080000       0.06640000       0.11930000
   110  H          0.13920000       0.56640000       0.38070000
   111  H          0.13920000       0.93360000       0.88070000
   112  H          0.86080000       0.43360000       0.61930000
   113  C          0.68193000       0.00703170       0.09183160
   114  C          0.31807000       0.50703170       0.40816840
   115  C          0.31807000      -0.00703170       0.90816840
   116  C          0.68193000       0.49296830       0.59183160
   117  H          0.62580000       0.05030000       0.07650000
   118  H          0.37420000       0.55030000       0.42350000
   119  H          0.37420000       0.94970000       0.92350000
   120  H          0.62580000       0.44970000       0.57650000
   121  C          0.62433000       0.93297170       0.08910160
   122  C          0.37567000       0.43297170       0.41089840
   123  C          0.37567000       0.06702830       0.91089840
   124  C          0.62433000       0.56702830       0.58910160
   125  H          0.53000000       0.92700000       0.07260000
   126  H          0.47000000       0.42700000       0.42740000
   127  H          0.47000000       0.07300000       0.92740000
   128  H          0.53000000       0.57300000       0.57260000
   129  C          0.70703000       0.86816160       0.11084160
   130  C          0.29297000       0.36816160       0.38915840
   131  C          0.29297000       0.13183840       0.88915840
   132  C          0.70703000       0.63183840       0.61084160
   133  H          0.66810000       0.81870000       0.10830000
   134  H          0.33190000       0.31870000       0.39170000
   135  H          0.33190000       0.18130000       0.89170000
   136  H          0.66810000       0.68130000       0.60830000
   137  C          0.84763000       0.87669150       0.13644150
   138  C          0.15237000       0.37669150       0.36355850
   139  C          0.15237000       0.12330850       0.86355850
   140  C          0.84763000       0.62330850       0.63644150
   141  H          0.90290000       0.83300000       0.15120000
   142  H          0.09710000       0.33300000       0.34880000
   143  H          0.09710000       0.16700000       0.84880000
   144  H          0.90290000       0.66700000       0.65120000
   145  C          0.13323000       0.94497150       0.28286150
   146  C          0.86677000       0.44497150       0.21713850
   147  C          0.86677000       0.05502850       0.71713850
   148  C          0.13323000       0.55502850       0.78286150
   149  C          0.04913000       0.90199160       0.31865160
   150  C          0.95087000       0.40199160       0.18134840
   151  C          0.95087000       0.09800840       0.68134840
   152  C          0.04913000       0.59800840       0.81865160
   153  H          0.96410000       0.88490000       0.28920000
   154  H          0.03590000       0.38490000       0.21080000
   155  H          0.03590000       0.11510000       0.71080000
   156  H          0.96410000       0.61510000       0.78920000
   157  C          0.09243000       0.88493170       0.39811170
   158  C          0.90757000       0.38493170       0.10188830
   159  C          0.90757000       0.11506830       0.60188830
   160  C          0.09243000       0.61506830       0.89811170
   161  H          0.03650000       0.85640000       0.42200000
   162  H          0.96350000       0.35640000       0.07800000
   163  H          0.96350000       0.14360000       0.57800000
   164  H          0.03650000       0.64360000       0.92200000
   165  C          0.21883000       0.91028170       0.44181160
   166  C          0.78117000       0.41028170       0.05818840
   167  C          0.78117000       0.08971830       0.55818840
   168  C          0.21883000       0.58971830       0.94181160
   169  H          0.24850000       0.89750000       0.49480000
   170  H          0.75150000       0.39750000       0.00520000
   171  H          0.75150000       0.10250000       0.50520000
   172  H          0.24850000       0.60250000      -0.00520000
   173  C          0.30173000       0.95457180       0.40739170
   174  C          0.69827000       0.45457180       0.09260830
   175  C          0.69827000       0.04542820       0.59260830
   176  C          0.30173000       0.54542820       0.90739170
   177  H          0.38540000       0.97270000       0.43760000
   178  H          0.61460000       0.47270000       0.06240000
   179  H          0.61460000       0.02730000       0.56240000
   180  H          0.38540000       0.52730000       0.93760000
   181  C          0.25993000       0.97193170       0.32783160
   182  C          0.74007000       0.47193170       0.17216840
   183  C          0.74007000       0.02806830       0.67216840
   184  C          0.25993000       0.52806830       0.82783160
   185  H          0.31580000       0.00130000       0.30460000
   186  H          0.68420000       0.50130000       0.19540000
   187  H          0.68420000      -0.00130000       0.69540000
   188  H          0.31580000       0.49870000       0.80460000
   189  C          0.16943000       0.88925150       0.13198150
   190  C          0.83057000       0.38925150       0.36801850
   191  C          0.83057000       0.11074850       0.86801850
   192  C          0.16943000       0.61074850       0.63198150
   193  C          0.10823000       0.86496160       0.05527160
   194  C          0.89177000       0.36496160       0.44472840
   195  C          0.89177000       0.13503840       0.94472840
   196  C          0.10823000       0.63503840       0.55527160
   197  H          0.02280000       0.88400000       0.02870000
   198  H          0.97720000       0.38400000       0.47130000
   199  H          0.97720000       0.11600000       0.97130000
   200  H          0.02280000       0.61600000       0.52870000
   201  C          0.17623000       0.81176170       0.01869170
   202  C          0.82377000       0.31176170       0.48130830
   203  C          0.82377000       0.18823830       0.98130830
   204  C          0.17623000       0.68823830       0.51869170
   205  H          0.13620000       0.79570000       0.96750000
   206  H          0.86380000       0.29570000       0.53250000
   207  H          0.86380000       0.20430000       0.03250000
   208  H          0.13620000       0.70430000       0.46750000
   209  C          0.30213000       0.78316160       0.05829170
   210  C          0.69787000       0.28316160       0.44170830
   211  C          0.69787000       0.21683840       0.94170830
   212  C          0.30213000       0.71683840       0.55829170
   213  H          0.34690000       0.74780000       0.03370000
   214  H          0.65310000       0.24780000       0.46630000
   215  H          0.65310000       0.25220000       0.96630000
   216  H          0.34690000       0.75220000       0.53370000
   217  C          0.36293000       0.80678160       0.13491160
   218  C          0.63707000       0.30678160       0.36508840
   219  C          0.63707000       0.19321840       0.86508840
   220  C          0.36293000       0.69321840       0.63491160
   221  H          0.44760000       0.78660000       0.16140000
   222  H          0.55240000       0.28660000       0.33860000
   223  H          0.55240000       0.21340000       0.83860000
   224  H          0.44760000       0.71340000       0.66140000
   225  C          0.29842000       0.86012150       0.17219140
   226  C          0.70158000       0.36012150       0.32780860
   227  C          0.70158000       0.13987850       0.82780860
   228  C          0.29842000       0.63987850       0.67219140
   229  H          0.33990000       0.87640000       0.22310000
   230  H          0.66010000       0.37640000       0.27690000
   231  H          0.66010000       0.12360000       0.77690000
   232  H          0.33990000       0.62360000       0.72310000
   233  O          0.54742000       0.64695150       0.15322140
   234  O          0.45258000       0.14695150       0.34677860
   235  O          0.45258000       0.35304850       0.84677860
   236  O          0.54742000       0.85304850       0.65322140
