data_LOFDAM
_symmetry_space_group_name_H-M    'P1'
_symmetry_Int_Tables_number       1
loop_
_symmetry_equiv_pos_site_id
_symmetry_equiv_pos_as_xyz
1 x,y,z
_cell_length_a                   10.334412
_cell_length_b                   16.907319
_cell_length_c                   17.6182
_cell_angle_alpha                90.0
_cell_angle_beta                 105.1946
_cell_angle_gamma                90.0
loop_
_atom_site_label
_atom_site_type_symbol
_atom_site_fract_x
_atom_site_fract_y
_atom_site_fract_z
     1  C          0.07882000       0.63524120       0.14712130
     2  C          0.92118000       0.13524120       0.35287870
     3  C          0.92118000       0.36475880       0.85287870
     4  C          0.07882000       0.86475880       0.64712130
     5  C          0.15242000       0.67922120       0.21049130
     6  C          0.84758000       0.17922120       0.28950870
     7  C          0.84758000       0.32077880       0.78950870
     8  C          0.15242000       0.82077880       0.71049130
     9  C          0.28122000       0.65955120       0.25268130
    10  C          0.71878000       0.15955120       0.24731870
    11  C          0.71878000       0.34044880       0.74731870
    12  C          0.28122000       0.84044880       0.75268130
    13  C          0.33782000       0.59239130       0.22924130
    14  C          0.66218000       0.09239130       0.27075870
    15  C          0.66218000       0.40760870       0.77075870
    16  C          0.33782000       0.90760870       0.72924130
    17  C          0.26932000       0.54526120       0.16739130
    18  C          0.73068000       0.04526120       0.33260870
    19  C          0.73068000       0.45473880       0.83260870
    20  C          0.26932000       0.95473880       0.66739130
    21  C          0.14162000       0.56824120       0.12779130
    22  C          0.85838000       0.06824120       0.37220870
    23  C          0.85838000       0.43175880       0.87220870
    24  C          0.14162000       0.93175880       0.62779130
    25  I          0.88120015       0.66219380       0.08469380
    26  I          0.11879985       0.16219380       0.41530620
    27  I          0.11879985       0.33780620       0.91530620
    28  I          0.88120015       0.83780620       0.58469380
    29  I          0.38768415       0.72776280       0.34867180
    30  I          0.61231585       0.22776280       0.15132820
    31  I          0.61231585       0.27223720       0.65132820
    32  I          0.38768415       0.77223720       0.84867180
    33  I          0.35370316       0.44619680       0.12733190
    34  I          0.64629684       0.94619680       0.37266810
    35  I          0.64629684       0.55380320       0.87266810
    36  I          0.35370316       0.05380320       0.62733190
    37  F          0.09397140       0.74357800       0.23242800
    38  F          0.90602860       0.24357800       0.26757200
    39  F          0.90602860       0.25642200       0.76757200
    40  F          0.09397140       0.75642200       0.73242800
    41  F          0.46297150       0.57201800       0.26824900
    42  F          0.53702850       0.07201800       0.23175100
    43  F          0.53702850       0.42798200       0.73175100
    44  F          0.46297150       0.92798200       0.76824900
    45  F          0.07401140       0.52463800       0.06690800
    46  F          0.92598860       0.02463800       0.43309200
    47  F          0.92598860       0.47536200       0.93309200
    48  F          0.07401140       0.97536200       0.56690800
    49  Br         0.43111200       0.31524913      -0.00005913
    50  Br         0.56888800       0.81524913       0.50005913
    51  Br         0.56888800       0.68475087       0.00005913
    52  Br         0.43111200       0.18475087       0.49994087
    53  P          0.08496600       0.96472300       0.17675300
    54  P          0.91503400       0.46472300       0.32324700
    55  P          0.91503400       0.03527700       0.82324700
    56  P          0.08496600       0.53527700       0.67675300
    57  C          0.14052000       0.06032120       0.15531130
    58  C          0.85948000       0.56032120       0.34468870
    59  C          0.85948000       0.93967880       0.84468870
    60  C          0.14052000       0.43967880       0.65531130
    61  C          0.11273000       0.12555130       0.19705140
    62  C          0.88727000       0.62555130       0.30294860
    63  C          0.88727000       0.87444870       0.80294860
    64  C          0.11273000       0.37444870       0.69705140
    65  H          0.06740000       0.11870000       0.23570000
    66  H          0.93260000       0.61870000       0.26430000
    67  H          0.93260000       0.88130000       0.76430000
    68  H          0.06740000       0.38130000       0.73570000
    69  C          0.15263000       0.20053140       0.18082160
    70  C          0.84737000       0.70053140       0.31917840
    71  C          0.84737000       0.79946860       0.81917840
    72  C          0.15263000       0.29946860       0.68082160
    73  H          0.13310000       0.24410000       0.20810000
    74  H          0.86690000       0.74410000       0.29190000
    75  H          0.86690000       0.75590000       0.79190000
    76  H          0.13310000       0.25590000       0.70810000
    77  C          0.22193000       0.21044140       0.12364150
    78  C          0.77807000       0.71044140       0.37635850
    79  C          0.77807000       0.78955860       0.87635850
    80  C          0.22193000       0.28955860       0.62364150
    81  H          0.24850000       0.26080000       0.11280000
    82  H          0.75150000       0.76080000       0.38720000
    83  H          0.75150000       0.73920000       0.88720000
    84  H          0.24850000       0.23920000       0.61280000
    85  C          0.25143000       0.14616150       0.08286150
    86  C          0.74857000       0.64616150       0.41713850
    87  C          0.74857000       0.85383850       0.91713850
    88  C          0.25143000       0.35383850       0.58286150
    89  H          0.29870000       0.15330000       0.04510000
    90  H          0.70130000       0.65330000       0.45490000
    91  H          0.70130000       0.84670000       0.95490000
    92  H          0.29870000       0.34670000       0.54510000
    93  C          0.21053000       0.07079140       0.09815140
    94  C          0.78947000       0.57079140       0.40184860
    95  C          0.78947000       0.92920860       0.90184860
    96  C          0.21053000       0.42920860       0.59815140
    97  H          0.22970000       0.02750000       0.07040000
    98  H          0.77030000       0.52750000       0.42960000
    99  H          0.77030000       0.97250000       0.92960000
   100  H          0.22970000       0.47250000       0.57040000
   101  C          0.90642000       0.95618120       0.14041130
   102  C          0.09358000       0.45618120       0.35958870
   103  C          0.09358000       0.04381880       0.85958870
   104  C          0.90642000       0.54381880       0.64041130
   105  C          0.82503000       0.02219130       0.11640140
   106  C          0.17497000       0.52219130       0.38359860
   107  C          0.17497000       0.97780870       0.88359860
   108  C          0.82503000       0.47780870       0.61640140
   109  H          0.86300000       0.07210000       0.11670000
   110  H          0.13700000       0.57210000       0.38330000
   111  H          0.13700000       0.92790000       0.88330000
   112  H          0.86300000       0.42790000       0.61670000
   113  C          0.68753000       0.01303150       0.09217150
   114  C          0.31247000       0.51303150       0.40782850
   115  C          0.31247000       0.98696850       0.90782850
   116  C          0.68753000       0.48696850       0.59217150
   117  H          0.63320000       0.05690000       0.07570000
   118  H          0.36680000       0.55690000       0.42430000
   119  H          0.36680000       0.94310000       0.92430000
   120  H          0.63320000       0.44310000       0.57570000
   121  C          0.62963000       0.93887150       0.09220160
   122  C          0.37037000       0.43887150       0.40779840
   123  C          0.37037000       0.06112850       0.90779840
   124  C          0.62963000       0.56112850       0.59220160
   125  H          0.53680000       0.93340000       0.07680000
   126  H          0.46320000       0.43340000       0.42320000
   127  H          0.46320000       0.06660000       0.92320000
   128  H          0.53680000       0.56660000       0.57680000
   129  C          0.71033000       0.87290140       0.11527150
   130  C          0.28967000       0.37290140       0.38472850
   131  C          0.28967000       0.12709860       0.88472850
   132  C          0.71033000       0.62709860       0.61527150
   133  H          0.67170000       0.82320000       0.11470000
   134  H          0.32830000       0.32320000       0.38530000
   135  H          0.32830000       0.17680000       0.88530000
   136  H          0.67170000       0.67680000       0.61470000
   137  C          0.84803000       0.88112130       0.13902140
   138  C          0.15197000       0.38112130       0.36097860
   139  C          0.15197000       0.11887870       0.86097860
   140  C          0.84803000       0.61887870       0.63902140
   141  H          0.90210000       0.83690000       0.15410000
   142  H          0.09790000       0.33690000       0.34590000
   143  H          0.09790000       0.16310000       0.84590000
   144  H          0.90210000       0.66310000       0.65410000
   145  C          0.13232000       0.95050120       0.28107130
   146  C          0.86768000       0.45050120       0.21892870
   147  C          0.86768000       0.04949880       0.71892870
   148  C          0.13232000       0.54949880       0.78107130
   149  C          0.05113000       0.90763130       0.31815140
   150  C          0.94887000       0.40763130       0.18184860
   151  C          0.94887000       0.09236870       0.68184860
   152  C          0.05113000       0.59236870       0.81815140
   153  H          0.96700000       0.89030000       0.28960000
   154  H          0.03300000       0.39030000       0.21040000
   155  H          0.03300000       0.10970000       0.71040000
   156  H          0.96700000       0.60970000       0.78960000
   157  C          0.09653000       0.89105140       0.39784140
   158  C          0.90347000       0.39105140       0.10215860
   159  C          0.90347000       0.10894860       0.60215860
   160  C          0.09653000       0.60894860       0.89784140
   161  H          0.04280000       0.86250000       0.42290000
   162  H          0.95720000       0.36250000       0.07710000
   163  H          0.95720000       0.13750000       0.57710000
   164  H          0.04280000       0.63750000       0.92290000
   165  C          0.22093000       0.91675140       0.43983140
   166  C          0.77907000       0.41675140       0.06016860
   167  C          0.77907000       0.08324860       0.56016860
   168  C          0.22093000       0.58324860       0.93983140
   169  H          0.25180000       0.90390000       0.49280000
   170  H          0.74820000       0.40390000       0.00720000
   171  H          0.74820000       0.09610000       0.50720000
   172  H          0.25180000       0.59610000      -0.00720000
   173  C          0.30103000       0.96158150       0.40419150
   174  C          0.69897000       0.46158150       0.09580850
   175  C          0.69897000       0.03841850       0.59580850
   176  C          0.30103000       0.53841850       0.90419150
   177  H          0.38370000       0.98020000       0.43360000
   178  H          0.61630000       0.48020000       0.06640000
   179  H          0.61630000       0.01980000       0.56640000
   180  H          0.38370000       0.51980000       0.93360000
   181  C          0.25723000       0.97852140       0.32460140
   182  C          0.74277000       0.47852140       0.17539860
   183  C          0.74277000       0.02147860       0.67539860
   184  C          0.25723000       0.52147860       0.82460140
   185  H          0.31040000       0.00830000       0.30030000
   186  H          0.68960000       0.50830000       0.19970000
   187  H          0.68960000       0.99170000       0.69970000
   188  H          0.31040000       0.49170000       0.80030000
   189  C          0.16272000       0.89126120       0.12951130
   190  C          0.83728000       0.39126120       0.37048870
   191  C          0.83728000       0.10873880       0.87048870
   192  C          0.16272000       0.60873880       0.62951130
   193  C          0.09633000       0.86371130       0.05507140
   194  C          0.90367000       0.36371130       0.44492860
   195  C          0.90367000       0.13628870       0.94492860
   196  C          0.09633000       0.63628870       0.55507140
   197  H          0.01060000       0.88170000       0.03030000
   198  H         -0.01060000       0.38170000       0.46970000
   199  H         -0.01060000       0.11830000       0.96970000
   200  H          0.01060000       0.61830000       0.53030000
   201  C          0.15993000       0.80867140       0.01794150
   202  C          0.84007000       0.30867140       0.48205850
   203  C          0.84007000       0.19132860       0.98205850
   204  C          0.15993000       0.69132860       0.51794150
   205  H          0.11650000       0.79000000       0.96810000
   206  H          0.88350000       0.29000000       0.53190000
   207  H          0.88350000       0.21000000       0.03190000
   208  H          0.11650000       0.71000000       0.46810000
   209  C          0.28703000       0.78186140       0.05494160
   210  C          0.71297000       0.28186140       0.44505840
   211  C          0.71297000       0.21813860       0.94505840
   212  C          0.28703000       0.71813860       0.55494160
   213  H          0.32850000       0.74500000       0.03000000
   214  H          0.67150000       0.24500000       0.47000000
   215  H          0.67150000       0.25500000       0.97000000
   216  H          0.32850000       0.75500000       0.53000000
   217  C          0.35303000       0.80952150       0.12898160
   218  C          0.64697000       0.30952150       0.37101840
   219  C          0.64697000       0.19047850       0.87101840
   220  C          0.35303000       0.69047850       0.62898160
   221  H          0.43880000       0.79150000       0.15340000
   222  H          0.56120000       0.29150000       0.34660000
   223  H          0.56120000       0.20850000       0.84660000
   224  H          0.43880000       0.70850000       0.65340000
   225  C          0.29113000       0.86425140       0.16688140
   226  C          0.70887000       0.36425140       0.33311860
   227  C          0.70887000       0.13574860       0.83311860
   228  C          0.29113000       0.63574860       0.66688140
   229  H          0.33500000       0.88270000       0.21670000
   230  H          0.66500000       0.38270000       0.28330000
   231  H          0.66500000       0.11730000       0.78330000
   232  H          0.33500000       0.61730000       0.71670000
