data_LOFHUN
_symmetry_space_group_name_H-M    'P1'
_symmetry_Int_Tables_number       1
loop_
_symmetry_equiv_pos_site_id
_symmetry_equiv_pos_as_xyz
1 x,y,z
_cell_length_a                   5.11422
_cell_length_b                   28.499012
_cell_length_c                   10.20684
_cell_angle_alpha                90.0
_cell_angle_beta                 98.5202
_cell_angle_gamma                90.0
loop_
_atom_site_label
_atom_site_type_symbol
_atom_site_fract_x
_atom_site_fract_y
_atom_site_fract_z
     1  Br         0.05872400       0.59960200       0.13729200
     2  Br         0.94127600       0.09960200       0.86270800
     3  Br         0.88066500       0.40112200       0.38479200
     4  Br         0.11933500       0.90112200       0.61520800
     5  O          0.59273000       0.46056500       0.89975150
     6  O          0.40727000       0.96056500       0.10024850
     7  O          0.17203000       0.44057600       0.83222160
     8  O          0.82797000       0.94057600       0.16777840
     9  C          0.41004000       0.44411600       0.81692000
    10  C          0.58996000       0.94411600       0.18308000
    11  C          0.48314000       0.42514700       0.68662000
    12  C          0.51686000       0.92514700       0.31338000
    13  H          0.32893500       0.42921800       0.61486700
    14  H          0.67106500       0.92921800       0.38513300
    15  N          0.71223000       0.45231600       0.65183180
    16  N          0.28777000       0.95231600       0.34816820
    17  H          0.75304400       0.44192400       0.57302400
    18  H          0.24695600       0.94192400       0.42697600
    19  H          0.85392600       0.44828100       0.71609600
    20  H          0.14607400       0.94828100       0.28390400
    21  H          0.66941000       0.48329600       0.64514100
    22  H          0.33059000       0.98329600       0.35485900
    23  C          0.55944000       0.37303700       0.69702000
    24  C          0.44056000       0.87303700       0.30298000
    25  H          0.61428800       0.36285800       0.61237700
    26  H          0.38571200       0.86285800       0.38762300
    27  H          0.71273900       0.36910200       0.76759400
    28  H          0.28726100       0.86910200       0.23240600
    29  C          0.33464000       0.34162700       0.72732000
    30  C          0.66536000       0.84162700       0.27268000
    31  H          0.29563200       0.34884700       0.81732700
    32  H          0.70436800       0.84884700       0.18267300
    33  H          0.17379300       0.34848400       0.66355500
    34  H          0.82620700       0.84848400       0.33644500
    35  C          0.40145000       0.28969700       0.71953000
    36  C          0.59855000       0.78969700       0.28047000
    37  H          0.24310300       0.27065400       0.72840400
    38  H          0.75689700       0.77065400       0.27159600
    39  H          0.45459800       0.28276000       0.63213300
    40  H          0.54540200       0.78276000       0.36786700
    41  C          0.72505000       0.23484800       0.83313000
    42  C          0.27495000       0.73484800       0.16687000
    43  N          0.61584000       0.27716700       0.82432000
    44  N          0.38416000       0.77716700       0.17568000
    45  H          0.67490000       0.29844600       0.88383600
    46  H          0.32510000       0.79844600       0.11616400
    47  N          0.91475000       0.22513800       0.93273000
    48  N          0.08525000       0.72513800       0.06727000
    49  H         -0.01013100       0.19728600       0.93814700
    50  H          0.01013100       0.69728600       0.06185300
    51  H          0.96532700       0.24653000      -0.00668900
    52  H          0.03467300       0.74653000       0.00668900
    53  N          0.65035000       0.20238700       0.74243000
    54  N          0.34965000       0.70238700       0.25757000
    55  H          0.72634200       0.17460900       0.74848800
    56  H          0.27365800       0.67460900       0.25151200
    57  H          0.52452300       0.20857900       0.67604000
    58  H          0.47547700       0.70857900       0.32396000
    59  O          0.02883000       0.55728600       0.68590150
    60  O         -0.02883000       0.05728600       0.31409850
    61  O          0.42173000       0.53695600       0.63285150
    62  O          0.57827000       0.03695600       0.36714850
    63  C          0.27894000       0.55421700       0.70882000
    64  C          0.72106000       0.05421700       0.29118000
    65  C          0.40764000       0.57422700       0.84192000
    66  C          0.59236000       0.07422700       0.15808000
    67  H          0.30411100       0.56273700       0.91134100
    68  H          0.69588900       0.06273700       0.08865900
    69  N          0.68223000       0.55543600       0.87445170
    70  N          0.31777000       0.05543600       0.12554830
    71  H          0.67567500       0.52406700       0.89031600
    72  H          0.32432500       0.02406700       0.10968400
    73  H          0.76676700       0.57019600       0.94777200
    74  H          0.23323300       0.07019600       0.05222800
    75  H          0.77160900       0.56059300       0.80505000
    76  H          0.22839100       0.06059300       0.19495000
    77  C          0.40754000       0.62793800       0.84632000
    78  C          0.59246000       0.12793800       0.15368000
    79  H          0.23022000       0.63921300       0.80673600
    80  H          0.76978000       0.13921300       0.19326400
    81  H          0.43721600       0.63798800       0.94017900
    82  H          0.56278400       0.13798800       0.05982100
    83  C          0.61324000       0.65155700       0.77492000
    84  C          0.38676000       0.15155700       0.22508000
    85  H          0.59538800       0.63940400       0.68317300
    86  H          0.40461200       0.13940400       0.31682700
    87  H          0.79180800       0.64310400       0.82013100
    88  H          0.20819200       0.14310400       0.17986900
    89  C          0.58774000       0.70482800       0.77062000
    90  C          0.41226000       0.20482800       0.22938000
    91  H          0.57347500       0.71684000       0.86023100
    92  H          0.42652500       0.21684000       0.13976900
    93  H          0.74754800       0.71868100       0.74200100
    94  H          0.25245200       0.21868100       0.25799900
    95  C          0.28405000       0.76311800       0.65873000
    96  C          0.71595000       0.26311800       0.34127000
    97  N          0.35464000       0.71870600       0.67882000
    98  N          0.64536000       0.21870600       0.32118000
    99  H          0.25699600       0.69672100       0.63508700
   100  H          0.74300400       0.19672100       0.36491300
   101  N          0.08145000       0.77343800       0.56403000
   102  N          0.91855000       0.27343800       0.43597000
   103  H          0.03320400       0.80282500       0.54914800
   104  H          0.96679600       0.30282500       0.45085200
   105  H         -0.00344000       0.75081400       0.51675100
   106  H          0.00344000       0.25081400       0.48324900
   107  N          0.40915000       0.79743700       0.72872000
   108  N          0.59085000       0.29743700       0.27128000
   109  H          0.54319000       0.79107700       0.79060100
   110  H          0.45681000       0.29107700       0.20939900
   111  H          0.35835500       0.82668400       0.71342200
   112  H          0.64164500       0.32668400       0.28657800
   113  O          0.15124000       0.30018600       0.07422000
   114  O          0.84876000       0.80018600       0.92578000
   115  O          0.81317000       0.34842600       0.00809180
   116  O          0.18683000       0.84842600      -0.00809180
   117  C          0.04335000       0.33966800       0.05992000
   118  C          0.95665000       0.83966800       0.94008000
   119  C          0.22054000       0.38088700       0.11102000
   120  C          0.77946000       0.88088700       0.88898000
   121  H          0.28364800       0.37672300       0.20676400
   122  H          0.71635200       0.87672300       0.79323600
   123  H          0.37669000       0.38176100       0.06419800
   124  H          0.62331000       0.88176100       0.93580200
   125  N          0.07374000       0.42550600       0.08942000
   126  N          0.92626000       0.92550600       0.91058000
   127  H          0.91853800       0.42273500       0.12237400
   128  H          0.08146200       0.92273500       0.87762600
   129  H          0.03391700       0.43068200       0.00070000
   130  H          0.96608300       0.93068200      -0.00070000
   131  C          0.21976000       0.46657800       0.15153000
   132  C          0.78024000       0.96657800       0.84847000
   133  H          0.38601700       0.47015900       0.11567400
   134  H          0.61398300       0.97015900       0.88432600
   135  H          0.25767000       0.46187000       0.24757800
   136  H          0.74233000       0.96187000       0.75242200
   137  H          0.11200300       0.49488600       0.13248000
   138  H          0.88799700       0.99488600       0.86752000
   139  O          0.12193000       0.64752600       0.50779190
   140  O          0.87807000       0.14752600       0.49220810
   141  O          0.77953000       0.69653500       0.46146180
   142  O          0.22047000       0.19653500       0.53853820
   143  C          0.88784000       0.65692700       0.46502000
   144  C          0.11216000       0.15692700       0.53498000
   145  N          0.85484000       0.57160600       0.42052000
   146  N          0.14516000       0.07160600       0.57948000
   147  H         -0.00171800       0.57475500       0.37810700
   148  H          0.00171800       0.07475500       0.62189300
   149  H          0.91422200       0.56518000       0.50718100
   150  H          0.08577800       0.06518000       0.49281900
   151  C          0.70724000       0.61638700       0.41182000
   152  C          0.29276000       0.11638700       0.58818000
   153  H          0.55860200       0.61399200       0.46352700
   154  H          0.44139800       0.11399200       0.53647300
   155  H          0.63257200       0.62261600       0.31826300
   156  H          0.36742800       0.12261600       0.68173700
   157  C          0.69335000       0.53197800       0.36213000
   158  C          0.30665000       0.03197800       0.63787000
   159  H          0.62669000       0.53883500       0.26900900
   160  H          0.37331000       0.03883500       0.73099100
   161  H          0.54397800       0.52720600       0.41068400
   162  H          0.45602200       0.02720600       0.58931600
   163  H          0.80177100       0.50348800       0.36753800
   164  H          0.19822900       0.00348800       0.63246200
