data_LOFHIB
_symmetry_space_group_name_H-M    'P1'
_symmetry_Int_Tables_number       1
loop_
_symmetry_equiv_pos_site_id
_symmetry_equiv_pos_as_xyz
1 x,y,z
_cell_length_a                   5.11003
_cell_length_b                   28.887618
_cell_length_c                   10.67078
_cell_angle_alpha                90.0
_cell_angle_beta                 99.2122
_cell_angle_gamma                90.0
loop_
_atom_site_label
_atom_site_type_symbol
_atom_site_fract_x
_atom_site_fract_y
_atom_site_fract_z
     1  I          0.04320600       0.59939200       0.14416300
     2  I          0.95679400       0.09939200       0.85583700
     3  I          0.89592600       0.40178200       0.37634300
     4  I          0.10407400       0.90178200       0.62365700
     5  O          0.59056000       0.45933110       0.88943000
     6  O          0.40944000       0.95933110       0.11057000
     7  O          0.16906000       0.43945110       0.82263000
     8  O          0.83094000       0.93945110       0.17737000
     9  C          0.40738000       0.44349130       0.80924000
    10  C          0.59262000       0.94349130       0.19076000
    11  C          0.47749000       0.42590150       0.68284000
    12  C          0.52251000       0.92590150       0.31716000
    13  H          0.32117900       0.43019400       0.61423900
    14  H          0.67882100       0.93019400       0.38576100
    15  N          0.70428000       0.45352120       0.65173000
    16  N          0.29572000       0.95352120       0.34827000
    17  H          0.74536800       0.44392800       0.57602600
    18  H          0.25463200       0.94392800       0.42397400
    19  H          0.84702800       0.44952000       0.71364800
    20  H          0.15297200       0.94952000       0.28635200
    21  H          0.65899200       0.48401000       0.64655600
    22  H          0.34100800       0.98401000       0.35344400
    23  C          0.55721000       0.37440170       0.68995000
    24  C          0.44279000       0.87440170       0.31005000
    25  H          0.61178600       0.36515400       0.60857600
    26  H          0.38821400       0.86515400       0.39142400
    27  H          0.71178700       0.37027700       0.75786000
    28  H          0.28821300       0.87027700       0.24214000
    29  C          0.33331000       0.34283160       0.71655000
    30  C          0.66669000       0.84283160       0.28345000
    31  H          0.29510300       0.34913400       0.80292700
    32  H          0.70489700       0.84913400       0.19707300
    33  H          0.17114900       0.34985700       0.65533800
    34  H          0.82885100       0.84985700       0.34466200
    35  C          0.40211000       0.29184160       0.70605000
    36  C          0.59789000       0.79184160       0.29395000
    37  H          0.24414000       0.27268300       0.71243000
    38  H          0.75586000       0.77268300       0.28757000
    39  H          0.45552400       0.28586400       0.62228000
    40  H          0.54447600       0.78586400       0.37772000
    41  C          0.73481200       0.23818180       0.81216000
    42  C          0.26518800       0.73818180       0.18784000
    43  N          0.61799000       0.27900140       0.80674000
    44  N          0.38201000       0.77900140       0.19326000
    45  H          0.67251200       0.29938900       0.86648500
    46  H          0.32748800       0.79938900       0.13351500
    47  N          0.92751200       0.22852190       0.90637000
    48  N          0.07248800       0.72852190       0.09363000
    49  H         -0.02188300       0.24932000       0.96551900
    50  H          0.02188300       0.74932000       0.03448100
    51  H          0.00551300       0.20128700       0.90993900
    52  H         -0.00551300       0.70128700       0.09006100
    53  N          0.66631100       0.20700170       0.72176000
    54  N          0.33368900       0.70700170       0.27824000
    55  H          0.54157200       0.21343100       0.65717600
    56  H          0.45842800       0.71343100       0.34282400
    57  H          0.74547600       0.17986400       0.72624000
    58  H          0.25452400       0.67986400       0.27376000
    59  O          0.00626000       0.55653110       0.68893000
    60  O         -0.00626000       0.05653110       0.31107000
    61  O          0.39596000       0.53577110       0.63783000
    62  O          0.60404000       0.03577110       0.36217000
    63  C          0.25638000       0.55300130       0.71034000
    64  C          0.74362000       0.05300130       0.28966000
    65  C          0.38961000       0.57250160       0.83964000
    66  C          0.61039000       0.07250160       0.16036000
    67  H          0.28708400       0.56138300       0.90608500
    68  H          0.71291600       0.06138300       0.09391500
    69  N          0.66357000       0.55345120       0.86943000
    70  N          0.33643000       0.05345120       0.13057000
    71  H          0.65549900       0.52238700       0.88246800
    72  H          0.34450100       0.02238700       0.11753200
    73  H          0.75059800       0.56729300       0.94069100
    74  H          0.24940200       0.06729300       0.05930900
    75  H          0.75159600       0.55903600       0.80331200
    76  H          0.24840400       0.05903600       0.19668800
    77  C          0.39251100       0.62545180       0.84265000
    78  C          0.60748900       0.12545180       0.15735000
    79  H          0.21742700       0.63670500       0.80039800
    80  H          0.78257300       0.13670500       0.19960200
    81  H          0.41477700       0.63553100       0.93236100
    82  H          0.58522300       0.13553100       0.06763900
    83  C          0.60499000       0.64865150       0.78045000
    84  C          0.39501000       0.14865150       0.21955000
    85  H          0.59151000       0.63724000       0.69214200
    86  H          0.40849000       0.13724000       0.30785800
    87  H          0.78121900       0.63961200       0.82658300
    88  H          0.21878100       0.13961200       0.17341700
    89  C          0.58491000       0.70128160       0.77835000
    90  C          0.41509000       0.20128160       0.22165000
    91  H          0.57180500       0.71280200       0.86450400
    92  H          0.42819500       0.21280200       0.13549600
    93  H          0.74643800       0.71465100       0.75243400
    94  H          0.25356200       0.21465100       0.24756600
    95  C          0.28031100       0.76003170       0.67455000
    96  C          0.71968900       0.26003170       0.32545000
    97  N          0.35238000       0.71584130       0.68984000
    98  N          0.64762000       0.21584130       0.31016000
    99  H          0.25587900       0.69462800       0.64464300
   100  H          0.74412100       0.19462800       0.35535700
   101  N          0.07711100       0.77088170       0.58306000
   102  N          0.92288900       0.27088170       0.41694000
   103  H          0.02826300       0.79994800       0.57058700
   104  H         -0.02826300       0.29994800       0.42941300
   105  H         -0.00714800       0.74892400       0.53558700
   106  H          0.00714800       0.24892400       0.46441300
   107  N          0.40561000       0.79312160       0.74525000
   108  N          0.59439000       0.29312160       0.25475000
   109  H          0.54062400       0.78624800       0.80435400
   110  H          0.45937600       0.28624800       0.19564600
   111  H          0.35413400       0.82207800       0.73328300
   112  H          0.64586600       0.32207800       0.26671700
   113  O          0.15748000       0.29895130       0.06184000
   114  O          0.84252000       0.79895130       0.93816000
   115  O          0.82403000       0.34742120      -0.00903000
   116  O          0.17597000       0.84742120       0.00903000
   117  C          0.05321000       0.33835160       0.04414000
   118  C          0.94679000       0.83835160       0.95586000
   119  C          0.23211100       0.37856170       0.09305000
   120  C          0.76788900       0.87856170       0.90695000
   121  H          0.29199400       0.37484500       0.18539100
   122  H          0.70800600       0.87484500       0.81460900
   123  H          0.39073000       0.37846600       0.05058200
   124  H          0.60927000       0.87846600       0.94941800
   125  N          0.09119000       0.42331130       0.06874000
   126  N          0.90881000       0.92331130       0.93126000
   127  H          0.05960300       0.42846100       0.98349300
   128  H          0.94039700       0.92846100       0.01650700
   129  H          0.93131400       0.42116200       0.09564600
   130  H          0.06868600       0.92116200       0.90435400
   131  C          0.23661200       0.46351180       0.13175000
   132  C          0.76338800       0.96351180       0.86825000
   133  H          0.40659900       0.46682400       0.10119900
   134  H          0.59340100       0.96682400       0.89880100
   135  H          0.26834500       0.45865900       0.22376400
   136  H          0.73165500       0.95865900       0.77623600
   137  H          0.13102400       0.49165700       0.11175400
   138  H          0.86897600       0.99165700       0.88824600
   139  O          0.10737000       0.64762120       0.51994000
   140  O          0.89263000       0.14762120       0.48006000
   141  O          0.77027000       0.69723120       0.47284000
   142  O          0.22973000       0.19723120       0.52716000
   143  C          0.87281000       0.65778160       0.47744000
   144  C          0.12719000       0.15778160       0.52256000
   145  N          0.82968000       0.57336130       0.43524000
   146  N          0.17032000       0.07336130       0.56476000
   147  H         -0.02480400       0.57590400       0.39644700
   148  H          0.02480400       0.07590400       0.60355300
   149  H          0.88633400       0.56691300       0.51855700
   150  H          0.11366600       0.06691300       0.48144300
   151  C          0.68771000       0.61819160       0.42535000
   152  C          0.31229000       0.11819160       0.57465000
   153  H          0.53772700       0.61653500       0.47354400
   154  H          0.46227300       0.11653500       0.52645600
   155  H          0.61442700       0.62440100       0.33529900
   156  H          0.38557300       0.12440100       0.66470100
   157  C          0.66461100       0.53447160       0.37725000
   158  C          0.33538900       0.03447160       0.62275000
   159  H          0.59301200       0.54200500       0.28882000
   160  H          0.40698800       0.04200500       0.71118000
   161  H          0.51813000       0.52919800       0.42463300
   162  H          0.48187000       0.02919800       0.57536700
   163  H          0.77327600       0.50642700       0.37980600
   164  H          0.22672400       0.00642700       0.62019400
