data_LOFJAV
_symmetry_space_group_name_H-M    'P1'
_symmetry_Int_Tables_number       1
loop_
_symmetry_equiv_pos_site_id
_symmetry_equiv_pos_as_xyz
1 x,y,z
_cell_length_a                   5.11513
_cell_length_b                   28.272114
_cell_length_c                   9.93655
_cell_angle_alpha                90.0
_cell_angle_beta                 98.0303
_cell_angle_gamma                90.0
loop_
_atom_site_label
_atom_site_type_symbol
_atom_site_fract_x
_atom_site_fract_y
_atom_site_fract_z
     1  Cl         0.05795120       0.59964200       0.13277500
     2  Cl         0.94204880       0.09964200       0.86722500
     3  Cl         0.87460140       0.40104200       0.38658600
     4  Cl         0.12539860       0.90104200       0.61341400
     5  O          0.60843000       0.46059500       0.90525150
     6  O          0.39157000       0.96059500       0.09474850
     7  O          0.18743000       0.44099600       0.83693160
     8  O          0.81257000       0.94099600       0.16306840
     9  C          0.42524000       0.44406700       0.82052000
    10  C          0.57476000       0.94406700       0.17948000
    11  C          0.49924000       0.42434700       0.68732000
    12  C          0.50076000       0.92434700       0.31268000
    13  H          0.34645500       0.42853500       0.61365900
    14  H          0.65354500       0.92853500       0.38634100
    15  N          0.73044000       0.45102600       0.65065180
    16  N          0.26956000       0.95102600       0.34934820
    17  H          0.77139100       0.44018400       0.56993600
    18  H          0.22860900       0.94018400       0.43006400
    19  H          0.87104900       0.44683800       0.71648300
    20  H          0.12895100       0.94683800       0.28351700
    21  H          0.68991400       0.48234100       0.64315200
    22  H          0.31008600       0.98234100       0.35684800
    23  C          0.57274000       0.37145700       0.69882000
    24  C          0.42726000       0.87145700       0.30118000
    25  H          0.62498400       0.36067800       0.61159200
    26  H          0.37501600       0.86067800       0.38840800
    27  H          0.72686500       0.36743000       0.77010500
    28  H          0.27313500       0.86743000       0.22989500
    29  C          0.34684000       0.34054700       0.73332000
    30  C          0.65316000       0.84054700       0.26668000
    31  H          0.18602300       0.34740900       0.66856200
    32  H          0.81397700       0.84740900       0.33143800
    33  H          0.30933400       0.34854400       0.82571100
    34  H          0.69066600       0.84854400       0.17428900
    35  C          0.41045000       0.28788800       0.72742000
    36  C          0.58955000       0.78788800       0.27258000
    37  H          0.25150000       0.26916400       0.73903400
    38  H          0.74850000       0.76916400       0.26096600
    39  H          0.46101200       0.28015300       0.63735300
    40  H          0.53898800       0.78015300       0.36264700
    41  C          0.73035000       0.23239800       0.84403000
    42  C          0.26965000       0.73239800       0.15597000
    43  N          0.62514000       0.27531700       0.83342000
    44  N          0.37486000       0.77531700       0.16658000
    45  H          0.68748500       0.29704000       0.89270700
    46  H          0.31251500       0.79704000       0.10729300
    47  N          0.91985000       0.22275800       0.94613000
    48  N          0.08015000       0.72275800       0.05387000
    49  H         -0.01010900       0.19428600       0.95401300
    50  H          0.01010900       0.69428600       0.04598700
    51  H         -0.02496200       0.24482700       0.00579200
    52  H          0.02496200       0.74482700      -0.00579200
    53  N          0.64925000       0.19889700       0.75512000
    54  N          0.35075000       0.69889700       0.24488000
    55  H          0.52337300       0.20489900       0.68744700
    56  H          0.47662700       0.70489900       0.31255300
    57  H          0.72112900       0.17057800       0.76357500
    58  H          0.27887100       0.67057800       0.23642500
    59  O          0.04483000       0.55733600       0.68399150
    60  O          0.95517000       0.05733600       0.31600850
    61  O          0.43903000       0.53668600       0.63089160
    62  O          0.56097000       0.03668600       0.36910840
    63  C          0.29364000       0.55413700       0.70822000
    64  C          0.70636000       0.05413700       0.29178000
    65  C          0.41914000       0.57465700       0.84492000
    66  C          0.58086000       0.07465700       0.15508000
    67  H          0.31577800       0.56277000       0.91630700
    68  H          0.68422200       0.06277000       0.08369300
    69  N          0.69463000       0.55652600       0.87811170
    70  N          0.30537000       0.05652600       0.12188830
    71  H          0.69073500       0.52479200       0.89315600
    72  H          0.30926500       0.02479200       0.10684400
    73  H          0.77577500       0.57126800       0.95404800
    74  H          0.22422500       0.07126800       0.04595200
    75  H          0.78523500       0.56244200       0.80737800
    76  H          0.21476500       0.06244200       0.19262200
    77  C          0.41364000       0.62878700       0.84882000
    78  C          0.58636000       0.12878700       0.15118000
    79  H          0.23408700       0.63956400       0.81118000
    80  H          0.76591300       0.13956400       0.18882000
    81  H          0.44738100       0.63910100       0.94487700
    82  H          0.55261900       0.13910100       0.05512300
    83  C          0.61174000       0.65305700       0.77112000
    84  C          0.38826000       0.15305700       0.22888000
    85  H          0.58973400       0.64063200       0.67702800
    86  H          0.41026600       0.14063200       0.32297200
    87  H          0.79239500       0.64501500       0.81436800
    88  H          0.20760500       0.14501500       0.18563200
    89  C          0.58254000       0.70673800       0.76602000
    90  C          0.41746000       0.20673800       0.23398000
    91  H          0.56802600       0.71892200       0.85805800
    92  H          0.43197400       0.21892200       0.14194200
    93  H          0.74088000       0.72100500       0.73546100
    94  H          0.25912000       0.22100500       0.26453900
    95  C          0.27715000       0.76484800       0.65022000
    96  C          0.72285000       0.26484800       0.34978000
    97  N          0.34804000       0.72010600       0.67282000
    98  N          0.65196000       0.22010600       0.32718000
    99  H          0.25004200       0.69766200       0.63000600
   100  H          0.74995800       0.19766200       0.36999400
   101  N          0.07455000       0.77466700       0.55442000
   102  N          0.92545000       0.27466700       0.44558000
   103  H          0.02656000       0.80420900       0.53766200
   104  H         -0.02656000       0.30420900       0.46233800
   105  H         -0.01115500       0.75157400       0.50790100
   106  H          0.01115500       0.25157400       0.49209900
   107  N          0.40324000       0.79986700       0.71892000
   108  N          0.59676000       0.29986700       0.28108000
   109  H          0.53831600       0.79382700       0.78165200
   110  H          0.46168400       0.29382700       0.21834800
   111  H          0.35233900       0.82925400       0.70207900
   112  H          0.64766100       0.32925400       0.29792100
   113  O          0.15744000       0.30062600       0.08082000
   114  O          0.84256000       0.80062600       0.91918000
   115  O          0.81517000       0.34835600       0.01577180
   116  O          0.18483000       0.84835600       0.98422820
   117  C          0.04575000       0.34024700       0.06732000
   118  C          0.95425000       0.84024700       0.93268000
   119  C          0.21804000       0.38224700       0.11982000
   120  C          0.78196000       0.88224700       0.88018000
   121  H          0.28518400       0.37753400       0.21720300
   122  H          0.71481600       0.87753400       0.78279700
   123  H          0.37150700       0.38433300       0.06942500
   124  H          0.62849300       0.88433300       0.93057500
   125  N          0.06514000       0.42663600       0.10242000
   126  N          0.93486000       0.92663600       0.89758000
   127  H          0.01036000       0.43127600       0.01220600
   128  H         -0.01036000       0.93127600      -0.01220600
   129  H          0.91867600       0.42361000       0.14423500
   130  H          0.08132400       0.92361000       0.85576500
   131  C          0.21465000       0.46842800       0.15753000
   132  C          0.78535000       0.96842800       0.84247000
   133  H          0.37564200       0.47140400       0.11508700
   134  H          0.62435800       0.97140400       0.88491300
   135  H          0.26195300       0.46488800       0.25603300
   136  H          0.73804700       0.96488800       0.74396700
   137  H          0.10588200       0.49680500       0.13821100
   138  H          0.89411800      -0.00319500       0.86178900
   139  O          0.12593000       0.64758600       0.50067190
   140  O          0.87407000       0.14758600       0.49932810
   141  O          0.77853000       0.69597600       0.45390180
   142  O          0.22147000       0.19597600       0.54609820
   143  C          0.89134000       0.65635800       0.45742000
   144  C          0.10866000       0.15635800       0.54258000
   145  N          0.86804000       0.57054600       0.41150190
   146  N          0.13196000       0.07054600       0.58849810
   147  H          0.93138300       0.56448500       0.50000200
   148  H          0.06861700       0.06448500       0.49999800
   149  H          0.00859100       0.57412000       0.36551400
   150  H         -0.00859100       0.07412000       0.63448600
   151  C          0.71564000       0.61497700       0.40352000
   152  C          0.28436000       0.11497700       0.59648000
   153  H          0.56782000       0.61190500       0.45744300
   154  H          0.43218000       0.11190500       0.54255700
   155  H          0.64011400       0.62111900       0.30782400
   156  H          0.35988600       0.12111900       0.69217600
   157  C          0.70865000       0.52986800       0.35453000
   158  C          0.29135000       0.02986800       0.64547000
   159  H          0.64103700       0.53605800       0.25896700
   160  H          0.35896300       0.03605800       0.74103300
   161  H          0.56018700       0.52515000       0.40572200
   162  H          0.43981300       0.02515000       0.59427800
   163  H          0.81873100       0.50136500       0.36113900
   164  H          0.18126900       0.00136500       0.63886100
