data_LOFLID
_symmetry_space_group_name_H-M    'P1'
_symmetry_Int_Tables_number       1
loop_
_symmetry_equiv_pos_site_id
_symmetry_equiv_pos_as_xyz
1 x,y,z
_cell_length_a                   12.861315
_cell_length_b                   5.33056
_cell_length_c                   29.1053
_cell_angle_alpha                90.0
_cell_angle_beta                 100.0162
_cell_angle_gamma                90.0
loop_
_atom_site_label
_atom_site_type_symbol
_atom_site_fract_x
_atom_site_fract_y
_atom_site_fract_z
     1  Cl         0.31316500       0.59002130       0.70748200
     2  Cl         0.18683500       0.09002130       0.79251800
     3  Cl         0.68683500       0.40997870       0.29251800
     4  Cl         0.81316500       0.90997870       0.20748200
     5  C          0.39385190       0.76475000       0.67789800
     6  C          0.10614810       0.26475000       0.82210200
     7  C          0.60614810       0.23525000       0.32210200
     8  C          0.89385190       0.73525000       0.17789800
     9  C          0.35241180       0.95395000       0.64674800
    10  C          0.14758820       0.45395000       0.85325200
    11  C          0.64758820       0.04605000       0.35325200
    12  C          0.85241180       0.54605000       0.14674800
    13  S          0.21778500       0.03631120       0.63712200
    14  S          0.28221500       0.53631120       0.86287800
    15  S          0.78221500       0.96368880       0.36287800
    16  S          0.71778500       0.46368880       0.13712200
    17  O          0.20437130       0.23644000       0.60365600
    18  O          0.29562870       0.73644000       0.89634400
    19  O          0.79562870       0.76356000       0.39634400
    20  O          0.70437130       0.26356000       0.10365600
    21  O          0.18552130       0.07424000       0.68132600
    22  O          0.31447870       0.57424000       0.81867400
    23  O          0.81447870       0.92576000       0.31867400
    24  O          0.68552130       0.42576000       0.18132600
    25  N          0.14858170       0.80355000       0.61254800
    26  N          0.35141830       0.30355000       0.88745200
    27  N          0.85141830       0.19645000       0.38745200
    28  N          0.64858170       0.69645000       0.11254800
    29  H          0.15120000       0.66970000       0.62921100
    30  H          0.34880000       0.16970000       0.87078900
    31  H          0.84880000       0.33030000       0.37078900
    32  H          0.65120000       0.83030000       0.12921100
    33  H          0.16120000       0.76770000       0.58511200
    34  H          0.33880000       0.26770000       0.91488800
    35  H          0.83880000       0.23230000       0.41488800
    36  H          0.66120000       0.73230000       0.08511200
    37  C          0.42095180       0.08575000       0.62386800
    38  C          0.07904820       0.58575000       0.87613200
    39  C          0.57904820       0.91425000       0.37613200
    40  C          0.92095180       0.41425000       0.12386800
    41  C          0.52868180       0.03635000       0.63130800
    42  C          0.97131820       0.53635000       0.86869200
    43  C          0.47131820       0.96365000       0.36869200
    44  C          0.02868180       0.46365000       0.13130800
    45  C          0.59858190       0.18695000       0.60650800
    46  C          0.90141810       0.68695000       0.89349200
    47  C          0.40141810       0.81305000       0.39349200
    48  C          0.09858190       0.31305000       0.10650800
    49  O          0.69525130       0.16813000       0.61476600
    50  O          0.80474870       0.66813000       0.88523400
    51  O          0.30474870       0.83187000       0.38523400
    52  O          0.19525130       0.33187000       0.11476600
    53  O          0.54919140       0.34554000       0.57559600
    54  O          0.95080860       0.84554000       0.92440400
    55  O          0.45080860       0.65446000       0.42440400
    56  O          0.04919140       0.15446000       0.07559600
    57  H          0.59630000       0.44790000       0.56451500
    58  H          0.90370000       0.94790000       0.93548500
    59  H          0.40370000       0.55210000       0.43548500
    60  H          0.09630000       0.05210000       0.06451500
    61  C          0.57043180       0.84385000       0.66317800
    62  C          0.92956820       0.34385000       0.83682200
    63  C          0.42956820       0.15615000       0.33682200
    64  C          0.07043180       0.65615000       0.16317800
    65  C          0.49948180       0.70915000       0.68595800
    66  C          0.00051820       0.20915000       0.81404200
    67  C          0.50051820       0.29085000       0.31404200
    68  C         -0.00051820       0.79085000       0.18595800
    69  H          0.52530000       0.57860000       0.70710000
    70  H          0.97470000       0.07860000       0.79290000
    71  H          0.47470000       0.42140000       0.29290000
    72  H          0.02530000       0.92140000       0.20710000
    73  N          0.67491150       0.78914000       0.67195700
    74  N          0.82508850       0.28914000       0.82804300
    75  N          0.32508850       0.21086000       0.32804300
    76  N          0.17491150       0.71086000       0.17195700
    77  C          0.72079180       0.59245000       0.70378800
    78  C          0.77920820       0.09245000       0.79621200
    79  C          0.27920820       0.40755000       0.29621200
    80  C          0.22079180       0.90755000       0.20378800
    81  C          0.83562180       0.56725000       0.70293800
    82  C          0.66437820       0.06725000       0.79706200
    83  C          0.16437820       0.43275000       0.29706200
    84  C          0.33562180       0.93275000       0.20293800
    85  O          0.89659140       0.77134000       0.71742700
    86  O          0.60340860       0.27134000       0.78257300
    87  O          0.10340860       0.22866000       0.28257300
    88  O          0.39659140       0.72866000       0.21742700
    89  C         -0.00128000       0.70496000       0.71323100
    90  C          0.50128000       0.20496000       0.78676900
    91  C          0.00128000       0.29504000       0.28676900
    92  C          0.49872000       0.79504000       0.21323100
    93  C          0.00172000       0.47325000       0.69714900
    94  C          0.49828000       0.97325000       0.80285100
    95  C         -0.00172000       0.52675000       0.30285100
    96  C          0.50172000       0.02675000       0.19714900
    97  C          0.89562000       0.38385000       0.69002900
    98  C          0.60438000       0.88385000       0.80997100
    99  C          0.10438000       0.61615000       0.30997100
   100  C          0.39562000       0.11615000       0.19002900
   101  H          0.87190000       0.22350000       0.67830000
   102  H          0.62810000       0.72350000       0.82170000
   103  H          0.12810000       0.77650000       0.32170000
   104  H          0.37190000       0.27650000       0.17830000
   105  H          0.06220000       0.38420000       0.69150000
   106  H          0.43780000       0.88420000       0.80850000
   107  H          0.93780000       0.61580000       0.30850000
   108  H          0.56220000       0.11580000       0.19150000
   109  H          0.05840000       0.81130000       0.72070000
   110  H          0.44160000       0.31130000       0.77930000
   111  H          0.94160000       0.18870000       0.27930000
   112  H          0.55840000       0.68870000       0.22070000
   113  H          0.71120000       0.63330000       0.73450000
   114  H          0.78880000       0.13330000       0.76550000
   115  H          0.28880000       0.36670000       0.26550000
   116  H          0.21120000       0.86670000       0.23450000
   117  H          0.68660000       0.43780000       0.69470000
   118  H          0.81340000       0.93780000       0.80530000
   119  H          0.31340000       0.56220000       0.30530000
   120  H          0.18660000       0.06220000       0.19470000
   121  H          0.72070000       0.88470000       0.65650000
   122  H          0.77930000       0.38470000       0.84350000
   123  H          0.27930000       0.11530000       0.34350000
   124  H          0.22070000       0.61530000       0.15650000
   125  H          0.39350000       0.21360000       0.60240000
   126  H          0.10650000       0.71360000       0.89760000
   127  H          0.60650000       0.78640000       0.39760000
   128  H          0.89350000       0.28640000       0.10240000
   129  O          0.87413130       0.34933000       0.48210600
   130  O          0.62586870       0.84933000       0.01789400
   131  O          0.12586870       0.65067000       0.51789400
   132  O          0.37413130       0.15067000       0.98210600
   133  C          0.90273180       0.21185000       0.51620800
   134  C          0.59726820       0.71185000       0.98379200
   135  C          0.09726820       0.78815000       0.48379200
   136  C          0.40273180       0.28815000       0.01620800
   137  N         -0.00417830       0.23805000       0.54362800
   138  N          0.50417830       0.73805000       0.95637200
   139  N          0.00417830       0.76195000       0.45637200
   140  N          0.49582170       0.26195000       0.04362800
   141  H          0.03920000       0.35060000       0.53691000
   142  H          0.46080000       0.85060000       0.96309000
   143  H          0.96080000       0.64940000       0.46309000
   144  H          0.53920000       0.14940000       0.03691000
   145  H          0.01720000       0.14060000       0.56621000
   146  H          0.48280000       0.64060000       0.93379000
   147  H          0.98280000       0.85940000       0.43379000
   148  H          0.51720000       0.35940000       0.06621000
   149  C          0.82997190       0.00865000       0.52774800
   150  C          0.67002810       0.50865000       0.97225200
   151  C          0.17002810      -0.00865000       0.47225200
   152  C          0.32997190       0.49135000       0.02774800
   153  C          0.85858190       0.82755000       0.56180800
   154  C          0.64141810       0.32755000       0.93819200
   155  C          0.14141810       0.17245000       0.43819200
   156  C          0.35858190       0.67245000       0.06180800
   157  C          0.78490190       0.65135000       0.56985900
   158  C          0.71509810       0.15135000       0.93014100
   159  C          0.21509810       0.34865000       0.43014100
   160  C          0.28490190       0.84865000       0.06985900
   161  N          0.68628160       0.64716000       0.54611700
   162  N          0.81371840       0.14716000       0.95388300
   163  N          0.31371840       0.35284000       0.45388300
   164  N          0.18628160       0.85284000       0.04611700
   165  C          0.65862000       0.82045000       0.51276900
   166  C          0.84138000       0.32045000       0.98723100
   167  C          0.34138000       0.17955000       0.48723100
   168  C          0.15862000       0.67955000       0.01276900
   169  C          0.72752000       0.00305000       0.50280900
   170  C          0.77248000       0.50305000      -0.00280900
   171  C          0.27248000      -0.00305000       0.49719100
   172  C          0.22752000       0.49695000       0.00280900
   173  H          0.70510000       0.12400000       0.47920000
   174  H          0.79490000       0.62400000       0.02080000
   175  H          0.29490000       0.87600000       0.52080000
   176  H          0.20510000       0.37600000       0.97920000
   177  H          0.58900000       0.81750000       0.49530000
   178  H          0.91100000       0.31750000       0.00470000
   179  H          0.41100000       0.18250000       0.50470000
   180  H          0.08900000       0.68250000      -0.00470000
   181  H          0.80530000       0.52800000       0.59320000
   182  H          0.69470000       0.02800000       0.90680000
   183  H          0.19470000       0.47200000       0.40680000
   184  H          0.30530000       0.97200000       0.09320000
   185  H          0.92800000       0.82480000       0.57940000
   186  H          0.57200000       0.32480000       0.92060000
   187  H          0.07200000       0.17520000       0.42060000
   188  H          0.42800000       0.67520000       0.07940000
