data_LOFLAV
_symmetry_space_group_name_H-M    'P1'
_symmetry_Int_Tables_number       1
loop_
_symmetry_equiv_pos_site_id
_symmetry_equiv_pos_as_xyz
1 x,y,z
_cell_length_a                   26.8235
_cell_length_b                   4.76071
_cell_length_c                   18.4274
_cell_angle_alpha                90.0
_cell_angle_beta                 122.373
_cell_angle_gamma                90.0
loop_
_atom_site_label
_atom_site_type_symbol
_atom_site_fract_x
_atom_site_fract_y
_atom_site_fract_z
     1  Cl         0.43664200       0.36252110       0.64855300
     2  Cl         0.06335800       0.86252110       0.85144700
     3  Cl         0.56335800       0.63747890       0.35144700
     4  Cl         0.93664200       0.13747890       0.14855300
     5  C          0.45115100       0.59364000       0.73004130
     6  C          0.04884900       0.09364000       0.76995870
     7  C          0.54884900       0.40636000       0.26995870
     8  C          0.95115100       0.90636000       0.23004130
     9  C          0.40487100       0.67365000       0.73738140
    10  C          0.09512900       0.17365000       0.76261860
    11  C          0.59512900       0.32635000       0.26261860
    12  C          0.90487100       0.82635000       0.23738140
    13  C          0.41274100       0.86984000       0.80040140
    14  C          0.08725900       0.36984000       0.69959860
    15  C          0.58725900       0.13016000       0.19959860
    16  C          0.91274100       0.63016000       0.30040140
    17  N          0.36669800       0.94024000       0.80795120
    18  N          0.13330200       0.44024000       0.69204880
    19  N          0.63330200       0.05976000       0.19204880
    20  N          0.86669800       0.55976000       0.30795120
    21  C          0.31086100       0.79165000       0.76457150
    22  C          0.18913900       0.29165000       0.73542850
    23  C          0.68913900       0.20835000       0.23542850
    24  C          0.81086100       0.70835000       0.26457150
    25  C          0.26964100       0.89425000       0.67550150
    26  C          0.23035900       0.39425000       0.82449850
    27  C          0.73035900       0.10575000       0.32449850
    28  C          0.76964100       0.60575000       0.17550150
    29  O          0.21339700       0.78694000       0.63454110
    30  O          0.28660300       0.28694000       0.86545890
    31  O          0.78660300       0.21306000       0.36545890
    32  O          0.71339700       0.71306000       0.13454110
    33  C          0.18265120       0.90556000       0.55369160
    34  C          0.31734880       0.40556000       0.94630840
    35  C          0.81734880       0.09444000       0.44630840
    36  C          0.68265120       0.59444000       0.05369160
    37  C          0.21746120       0.08156000       0.54354160
    38  C          0.28253880       0.58156000       0.95645840
    39  C          0.78253880       0.91844000       0.45645840
    40  C          0.71746120       0.41844000       0.04354160
    41  C          0.27417120       0.07606000       0.62287160
    42  C          0.22582880       0.57606000       0.87712840
    43  C          0.72582880       0.92394000       0.37712840
    44  C          0.77417120       0.42394000       0.12287160
    45  H          0.30830000       0.17900000       0.63570000
    46  H          0.19170000       0.67900000       0.86430000
    47  H          0.69170000       0.82100000       0.36430000
    48  H          0.80830000       0.32100000       0.13570000
    49  H          0.20670000       0.18940000       0.49390000
    50  H          0.29330000       0.68940000       0.00610000
    51  H          0.79330000       0.81060000       0.50610000
    52  H          0.70670000       0.31060000      -0.00610000
    53  H          0.14250000       0.86760000       0.51120000
    54  H          0.35750000       0.36760000       0.98880000
    55  H          0.85750000       0.13240000       0.48880000
    56  H          0.64250000       0.63240000       0.01120000
    57  H          0.29280000       0.81610000       0.79660000
    58  H          0.20720000       0.31610000       0.70340000
    59  H          0.70720000       0.18390000       0.20340000
    60  H          0.79280000       0.68390000       0.29660000
    61  H          0.31820000       0.59760000       0.76230000
    62  H          0.18180000       0.09760000       0.73770000
    63  H          0.68180000       0.40240000       0.23770000
    64  H          0.81820000       0.90240000       0.26230000
    65  H          0.37120000       0.09570000       0.84330000
    66  H          0.12880000       0.59570000       0.65670000
    67  H          0.62880000       0.90430000       0.15670000
    68  H          0.87120000       0.40430000       0.34330000
    69  C          0.46985900      -0.01166000       0.85415130
    70  C          0.03014100       0.48834000       0.64584870
    71  C          0.53014100       0.01166000       0.14584870
    72  C          0.96985900       0.51166000       0.35415130
    73  C          0.48203100       0.20634000       0.91800130
    74  C          0.01796900       0.70634000       0.58199870
    75  C          0.51796900       0.79366000       0.08199870
    76  C          0.98203100       0.29366000       0.41800130
    77  O          0.53774700       0.28564000       0.96505110
    78  O          0.96225300       0.78564000       0.53494890
    79  O          0.46225300       0.71436000       0.03494890
    80  O          0.03774700       0.21436000       0.46505110
    81  H          0.54411800       0.43690000       0.00530000
    82  H          0.95588200       0.93690000       0.49470000
    83  H          0.45588200       0.56310000      -0.00530000
    84  H          0.04411800       0.06310000       0.50530000
    85  O          0.44354700       0.30874000       0.92766100
    86  O          0.05645300       0.80874000       0.57233900
    87  O          0.55645300       0.69126000       0.07233900
    88  O          0.94354700       0.19126000       0.42766100
    89  C          0.51619900       0.89964000       0.84618130
    90  C          0.98380100       0.39964000       0.65381870
    91  C          0.48380100       0.10036000       0.15381870
    92  C          0.01619900       0.60036000       0.34618130
    93  C          0.50843900       0.70074000       0.78608130
    94  C         -0.00843900       0.20074000       0.71391870
    95  C          0.49156100       0.29926000       0.21391870
    96  C          0.00843900       0.79926000       0.28608130
    97  S          0.57020200       0.61372110       0.78042300
    98  S          0.92979800       0.11372110       0.71957700
    99  S          0.42979800       0.38627890       0.21957700
   100  S          0.07020200       0.88627890       0.28042300
   101  O          0.57117700       0.31553000       0.76893110
   102  O          0.92882300       0.81553000       0.73106890
   103  O          0.42882300       0.68447000       0.23106890
   104  O          0.07117700       0.18447000       0.26893110
   105  O          0.62018700       0.74294000       0.85369100
   106  O          0.87981300       0.24294000       0.64630900
   107  O          0.37981300       0.25706000       0.14630900
   108  O          0.12018700       0.75706000       0.35369100
   109  N          0.56158900       0.75884000       0.69543130
   110  N          0.93841100       0.25884000       0.80456870
   111  N          0.43841100       0.24116000       0.30456870
   112  N          0.06158900       0.74116000       0.19543130
   113  H          0.53821500       0.65470000       0.65020000
   114  H          0.96178500       0.15470000       0.84980000
   115  H          0.46178500       0.34530000       0.34980000
   116  H          0.03821500       0.84530000       0.15020000
   117  H          0.55971400       0.93180000       0.70020000
   118  H          0.94028600       0.43180000       0.79980000
   119  H          0.44028600       0.06820000       0.29980000
   120  H          0.05971400       0.56820000       0.20020000
   121  H          0.55430000      -0.02250000       0.88320000
   122  H          0.94570000       0.47750000       0.61680000
   123  H          0.44570000       0.02250000       0.11680000
   124  H          0.05430000       0.52250000       0.38320000
   125  H          0.36680000       0.59650000       0.69920000
   126  H          0.13320000       0.09650000       0.80080000
   127  H          0.63320000       0.40350000       0.30080000
   128  H          0.86680000       0.90350000       0.19920000
   129  O          0.45590700       0.73464000       0.43137110
   130  O          0.04409300       0.23464000       0.06862890
   131  O          0.54409300       0.26536000       0.56862890
   132  O          0.95590700       0.76536000       0.93137110
   133  C          0.42559100       0.81685000       0.46224140
   134  C          0.07440900       0.31685000       0.03775860
   135  C          0.57440900       0.18315000       0.53775860
   136  C          0.92559100       0.68315000       0.96224140
   137  O          0.44455900       0.00884000       0.51965120
   138  O          0.05544100       0.50884000       0.98034880
   139  O          0.55544100      -0.00884000       0.48034880
   140  O          0.94455900       0.49116000       0.01965120
   141  C          0.36771100       0.69315000       0.43104140
   142  C          0.13228900       0.19315000       0.06895860
   143  C          0.63228900       0.30685000       0.56895860
   144  C          0.86771100       0.80685000       0.93104140
   145  C          0.34651100       0.47595000       0.37084150
   146  C          0.15348900      -0.02405000       0.12915850
   147  C          0.65348900       0.52405000       0.62915850
   148  C          0.84651100       0.02405000       0.87084150
   149  C          0.29174110       0.36005000       0.33982160
   150  C          0.20825890       0.86005000       0.16017840
   151  C          0.70825890       0.63995000       0.66017840
   152  C          0.79174110       0.13995000       0.83982160
   153  C          0.25554100       0.46185000       0.36796160
   154  C          0.24445900       0.96185000       0.13203840
   155  C          0.74445900       0.53815000       0.63203840
   156  C          0.75554100       0.03815000       0.86796160
   157  N          0.20101100       0.34735000       0.33681170
   158  N          0.29898900       0.84735000       0.16318830
   159  N          0.79898900       0.65265000       0.66318830
   160  N          0.70101100       0.15265000       0.83681170
   161  H          0.18751700       0.22190000       0.29530000
   162  H          0.31248300       0.72190000       0.20470000
   163  H          0.81248300       0.77810000       0.70470000
   164  H          0.68751700       0.27810000       0.79530000
   165  H          0.17581500       0.44170000       0.34320000
   166  H          0.32418500       0.94170000       0.15680000
   167  H          0.82418500       0.55830000       0.65680000
   168  H          0.67581500       0.05830000       0.84320000
   169  C          0.27707110       0.67756000       0.42910160
   170  C          0.22292890       0.17756000       0.07089840
   171  C          0.72292890       0.32244000       0.57089840
   172  C          0.77707110       0.82244000       0.92910160
   173  C          0.33196110       0.79076000       0.45981160
   174  C          0.16803890       0.29076000       0.04018840
   175  C          0.66803890       0.20924000       0.54018840
   176  C          0.83196110       0.70924000       0.95981160
   177  H          0.34580000       0.93770000       0.50100000
   178  H          0.15420000       0.43770000      -0.00100000
   179  H          0.65420000       0.06230000       0.49900000
   180  H          0.84580000       0.56230000       0.00100000
   181  H          0.25340000       0.74600000       0.44930000
   182  H          0.24660000       0.24600000       0.05070000
   183  H          0.74660000       0.25400000       0.55070000
   184  H          0.75340000       0.75400000       0.94930000
   185  H          0.27820000       0.21130000       0.29920000
   186  H          0.22180000       0.71130000       0.20080000
   187  H          0.72180000       0.78870000       0.70080000
   188  H          0.77820000       0.28870000       0.79920000
   189  H          0.37040000       0.40690000       0.35090000
   190  H          0.12960000       0.90690000       0.14910000
   191  H          0.62960000       0.59310000       0.64910000
   192  H          0.87040000       0.09310000       0.85090000
   193  H          0.49040000       0.10200000       0.53250000
   194  H          0.00960000       0.60200000       0.96750000
   195  H          0.50960000       0.89800000       0.46750000
   196  H          0.99040000       0.39800000       0.03250000
