data_LOGZIR
_symmetry_space_group_name_H-M    'P1'
_symmetry_Int_Tables_number       1
loop_
_symmetry_equiv_pos_site_id
_symmetry_equiv_pos_as_xyz
1 x,y,z
_cell_length_a                   7.71372
_cell_length_b                   9.79112
_cell_length_c                   12.17112
_cell_angle_alpha                96.2561
_cell_angle_beta                 107.4281
_cell_angle_gamma                96.4561
loop_
_atom_site_label
_atom_site_type_symbol
_atom_site_fract_x
_atom_site_fract_y
_atom_site_fract_z
     1  N          0.46613180      -0.00822120       0.73319100
     2  N          0.53386820       0.00822120       0.26680900
     3  N          0.61969180       0.09022120       0.76633100
     4  N          0.38030820       0.90977880       0.23366900
     5  N          0.71800180       0.06685120       0.86806100
     6  N          0.28199820       0.93314880       0.13193900
     7  O          0.87442150       0.14219110       0.92493800
     8  O          0.12557850       0.85780890       0.07506200
     9  C          0.47192000       0.90509860       0.81681120
    10  C          0.52808000       0.09490140       0.18318880
    11  C          0.35262000       0.79102860       0.82476130
    12  C          0.64738000       0.20897140       0.17523870
    13  H          0.24040000       0.75560000       0.76460000
    14  H          0.75960000       0.24440000       0.23540000
    15  C          0.40792000       0.73305850       0.92565130
    16  C          0.59208000       0.26694150       0.07434870
    17  H          0.33050000       0.65580000       0.93520000
    18  H          0.66950000       0.34420000       0.06480000
    19  C          0.57482000       0.78388850       0.01511120
    20  C          0.42518000       0.21611150       0.98488880
    21  H          0.60620000       0.74010000       0.08280000
    22  H          0.39380000       0.25990000       0.91720000
    23  C          0.69382000       0.89584860       0.00674120
    24  C          0.30618000       0.10415140      -0.00674120
    25  H          0.80720000       0.93050000       0.06600000
    26  H          0.19280000       0.06950000       0.93400000
    27  C          0.63542000       0.95409860       0.90526120
    28  C          0.36458000       0.04590140       0.09473880
    29  C          0.32802000      -0.01476140       0.62307120
    30  C          0.67198000       0.01476140       0.37692880
    31  O          0.20016160       0.89192900       0.59524900
    32  O          0.79983840       0.10807100       0.40475100
    33  C          0.36222000       0.09480150       0.55567120
    34  C          0.63778000       0.90519850       0.44432880
    35  H          0.46770000       0.16420000       0.58720000
    36  H          0.53230000       0.83580000       0.41280000
    37  C          0.24572000       0.09718140       0.45052120
    38  C          0.75428000       0.90281860       0.54947880
    39  H          0.14170000       0.02610000       0.42200000
    40  H          0.85830000       0.97390000       0.57800000
    41  C          0.26532000       0.20090140       0.37532120
    42  C          0.73468000       0.79909860       0.62467880
    43  C          0.13282000       0.19083150       0.26630120
    44  C          0.86718000       0.80916850       0.73369880
    45  H          0.03160000       0.11750000       0.24300000
    46  H          0.96840000       0.88250000       0.75700000
    47  C          0.14612000       0.28593150       0.19124120
    48  C          0.85388000       0.71406850       0.80875880
    49  H          0.05530000       0.27910000       0.11740000
    50  H          0.94470000       0.72090000       0.88260000
    51  C          0.29582000       0.39068150       0.22743130
    52  C          0.70418000       0.60931850       0.77256870
    53  N          0.31732000       0.48993140       0.14769120
    54  N          0.68268000       0.51006860       0.85230880
    55  C          0.43042000       0.40460160       0.33472130
    56  C          0.56958000       0.59539840       0.66527870
    57  H          0.53140000       0.47800000       0.35720000
    58  H          0.46860000       0.52200000       0.64280000
    59  C          0.41452000       0.30950150       0.40813120
    60  C          0.58548000       0.69049850       0.59186880
    61  H          0.50580000       0.31760000       0.48200000
    62  H          0.49420000       0.68240000       0.51800000
    63  O          0.44502000       0.58687120       0.18497110
    64  O          0.55498000       0.41312880       0.81502890
    65  O          0.20745190       0.46973120       0.04891100
    66  O          0.79254810       0.53026880       0.95108900
    67  O          0.94122170       0.32555110       0.79791900
    68  O          0.05877830       0.67444890       0.20208100
    69  H          0.92620000       0.26490000       0.83940000
    70  H          0.07380000       0.73510000       0.16060000
    71  O          0.09062170       0.17400110       0.72274900
    72  O          0.90937830       0.82599890       0.27725100
    73  C          0.02652000       0.27954150       0.72723120
    74  C          0.97348000       0.72045850       0.27276880
    75  C          0.03492000       0.38422150       0.64224130
    76  C          0.96508000       0.61577850       0.35775870
    77  F          0.11248160       0.51033900       0.69997900
    78  F          0.88751840       0.48966100       0.30002100
    79  F          0.13066150       0.34778100       0.57333800
    80  F          0.86933850       0.65221900       0.42666200
    81  F          0.86648150       0.39461110       0.57521900
    82  F          0.13351850       0.60538890       0.42478100
