data_LOHNOM
_symmetry_space_group_name_H-M    'P1'
_symmetry_Int_Tables_number       1
loop_
_symmetry_equiv_pos_site_id
_symmetry_equiv_pos_as_xyz
1 x,y,z
_cell_length_a                   10.13274
_cell_length_b                   16.24947
_cell_length_c                   14.34995
_cell_angle_alpha                90.0
_cell_angle_beta                 108.2382
_cell_angle_gamma                90.0
loop_
_atom_site_label
_atom_site_type_symbol
_atom_site_fract_x
_atom_site_fract_y
_atom_site_fract_z
     1  Br         0.90393400       0.69713300       0.25794300
     2  Br         0.59606600       0.19713300       0.24205700
     3  Br         0.09606600       0.30286700       0.74205700
     4  Br         0.40393400       0.80286700       0.75794300
     5  O          0.52532000       0.59439150       0.67377160
     6  O          0.97468000       0.09439150       0.82622840
     7  O          0.47468000       0.40560850       0.32622840
     8  O          0.02532000       0.90560850       0.17377160
     9  H          0.44230000       0.58420000       0.65860000
    10  H          0.05770000       0.08420000       0.84140000
    11  H          0.55770000       0.41580000       0.34140000
    12  H          0.94230000       0.91580000       0.15860000
    13  C          0.69453000       0.64292000       0.81492000
    14  C          0.80547000       0.14292000       0.68508000
    15  C          0.30547000       0.35708000       0.18508000
    16  C          0.19453000       0.85708000       0.31492000
    17  H          0.74910000       0.65790000       0.77620000
    18  H          0.75090000       0.15790000       0.72380000
    19  H          0.25090000       0.34210000       0.22380000
    20  H          0.24910000       0.84210000       0.27620000
    21  C          0.56963000       0.60672000       0.77332000
    22  C          0.93037000       0.10672000       0.72668000
    23  C          0.43037000       0.39328000       0.22668000
    24  C          0.06963000       0.89328000       0.27332000
    25  C          0.48833000       0.58172000       0.83152000
    26  C          0.01167000       0.08172000       0.66848000
    27  C          0.51167000       0.41828000       0.16848000
    28  C         -0.01167000       0.91828000       0.33152000
    29  H          0.40370000       0.55560000       0.80230000
    30  H          0.09630000       0.05560000       0.69770000
    31  H          0.59630000       0.44440000       0.19770000
    32  H          0.90370000       0.94440000       0.30230000
    33  C          0.53173000       0.59511190       0.93012000
    34  C          0.96827000       0.09511190       0.56988000
    35  C          0.46827000       0.40488810       0.06988000
    36  C          0.03173000       0.90488810       0.43012000
    37  H          0.47630000       0.57830000       0.96740000
    38  H          0.02370000       0.07830000       0.53260000
    39  H          0.52370000       0.42170000       0.03260000
    40  H          0.97630000       0.92170000       0.46740000
    41  C          0.65823000       0.63370180       0.97562000
    42  C          0.84177000       0.13370180       0.52438000
    43  C          0.34177000       0.36629820       0.02438000
    44  C          0.15823000       0.86629820       0.47562000
    45  C          0.70883000       0.64743190       0.07932000
    46  C          0.79117000       0.14743190       0.42068000
    47  C          0.29117000       0.35256810       0.92068000
    48  C          0.20883000       0.85256810       0.57932000
    49  H          0.65530000       0.63180000       0.11840000
    50  H          0.84470000       0.13180000       0.38160000
    51  H          0.34470000       0.36820000       0.88160000
    52  H          0.15530000       0.86820000       0.61840000
    53  C          0.83283000       0.68272000       0.12012000
    54  C          0.66717000       0.18272000       0.37988000
    55  C          0.16717000       0.31728000       0.87988000
    56  C          0.33283000       0.81728000       0.62012000
    57  C          0.91613000       0.70853190       0.06283000
    58  C          0.58387000       0.20853190       0.43717000
    59  C          0.08387000       0.29146810       0.93717000
    60  C          0.41613000       0.79146810       0.56283000
    61  H          0.00100000       0.73410000       0.09240000
    62  H          0.49900000       0.23410000       0.40760000
    63  H         -0.00100000       0.26590000       0.90760000
    64  H          0.50100000       0.76590000       0.59240000
    65  C          0.87163000       0.69582000       0.96453000
    66  C          0.62837000       0.19582000       0.53547000
    67  C          0.12837000       0.30418000       0.03547000
    68  C          0.37163000       0.80418000       0.46453000
    69  H          0.92730000       0.71220000       0.92720000
    70  H          0.57270000       0.21220000       0.57280000
    71  H          0.07270000       0.28780000       0.07280000
    72  H          0.42730000       0.78780000       0.42720000
    73  C          0.74273000       0.65831180       0.91792000
    74  C          0.75727000       0.15831180       0.58208000
    75  C          0.25727000       0.34168820       0.08208000
    76  C          0.24273000       0.84168820       0.41792000
    77  C          0.18393000       0.60152000       0.50353000
    78  C          0.31607000       0.10152000      -0.00353000
    79  C          0.81607000       0.39848000       0.49647000
    80  C          0.68393000       0.89848000       0.00353000
    81  H          0.18600000       0.66020000       0.51580000
    82  H          0.31400000       0.16020000       0.98420000
    83  H          0.81400000       0.33980000       0.48420000
    84  H          0.68600000       0.83980000       0.01580000
    85  H          0.08770000       0.58470000       0.47570000
    86  H          0.41230000       0.08470000       0.02430000
    87  H          0.91230000       0.41530000       0.52430000
    88  H          0.58770000       0.91530000       0.97570000
    89  C          0.26183000       0.58242000       0.43332000
    90  C          0.23817000       0.08242000       0.06668000
    91  C          0.73817000       0.41758000       0.56668000
    92  C          0.76183000       0.91758000       0.93332000
    93  H          0.21860000       0.61040000       0.37150000
    94  H          0.28140000       0.11040000       0.12850000
    95  H          0.78140000       0.38960000       0.62850000
    96  H          0.71860000       0.88960000       0.87150000
    97  H          0.35670000       0.60200000       0.45970000
    98  H          0.14330000       0.10200000       0.04030000
    99  H          0.64330000       0.39800000       0.54030000
   100  H          0.85670000       0.89800000       0.95970000
   101  C          0.32323000       0.44932000       0.50942000
   102  C          0.17677000       0.94932000      -0.00942000
   103  C          0.67677000       0.55068000       0.49058000
   104  C          0.82323000       0.05068000       0.00942000
   105  H          0.41940000       0.46580000       0.53830000
   106  H          0.08060000       0.96580000       0.96170000
   107  H          0.58060000       0.53420000       0.46170000
   108  H          0.91940000       0.03420000       0.03830000
   109  H          0.32090000       0.39050000       0.49740000
   110  H          0.17910000       0.89050000       0.00260000
   111  H          0.67910000       0.60950000       0.50260000
   112  H          0.82090000       0.10950000      -0.00260000
   113  C          0.24374000       0.46873000       0.57823000
   114  C          0.25626000       0.96873000       0.92177000
   115  C          0.75626000       0.53127000       0.42177000
   116  C          0.74374000       0.03127000       0.07823000
   117  H          0.14800000       0.45100000       0.55010000
   118  H          0.35200000       0.95100000       0.94990000
   119  H          0.85200000       0.54900000       0.44990000
   120  H          0.64800000       0.04900000       0.05010000
   121  H          0.28380000       0.43960000       0.63960000
   122  H          0.21620000       0.93960000       0.86040000
   123  H          0.71620000       0.56040000       0.36040000
   124  H          0.78380000       0.06040000       0.13960000
   125  N          0.24843000       0.55722000       0.59602000
   126  N          0.25157000       0.05722000       0.90398000
   127  N          0.75157000       0.44278000       0.40398000
   128  N          0.74843000       0.94278000       0.09602000
   129  H          0.19940000       0.57500000       0.62870000
   130  H          0.30060000       0.07500000       0.87130000
   131  H          0.80060000       0.42500000       0.37130000
   132  H          0.69940000       0.92500000       0.12870000
   133  N          0.26163000       0.49323180       0.41684190
   134  N          0.23837000      -0.00676820       0.08315810
   135  N          0.73837000       0.50676820       0.58315810
   136  N          0.76163000       0.00676820       0.91684190
   137  H          0.30470000       0.48790000       0.38130000
   138  H          0.19530000       0.98790000       0.11870000
   139  H          0.69530000       0.51210000       0.61870000
   140  H          0.80470000       0.01210000       0.88130000
   141  Br         0.41434400       0.63994300       0.24310300
   142  Br         0.08565600       0.13994300       0.25689700
   143  Br         0.58565600       0.36005700       0.75689700
   144  Br         0.91434400       0.86005700       0.74310300
   145  O          0.97338000       0.59459140       0.65772150
   146  O          0.52662000       0.09459140       0.84227850
   147  O          0.02662000       0.40540860       0.34227850
   148  O          0.47338000       0.90540860       0.15772150
   149  H          0.90880000       0.56040000       0.64300000
   150  H          0.59120000       0.06040000       0.85700000
   151  H          0.09120000       0.43960000       0.35700000
   152  H          0.40880000       0.93960000       0.14300000
   153  C          0.11703000       0.65519190       0.80322000
   154  C          0.38297000       0.15519190       0.69678000
   155  C          0.88297000       0.34480810       0.19678000
   156  C          0.61703000       0.84480810       0.30322000
   157  H          0.12870000       0.70050000       0.76700000
   158  H          0.37130000       0.20050000       0.73300000
   159  H          0.87130000       0.29950000       0.23300000
   160  H          0.62870000       0.79950000       0.26700000
   161  C          0.03433000       0.59134180       0.75672000
   162  C          0.46567000       0.09134180       0.74328000
   163  C          0.96567000       0.40865820       0.24328000
   164  C          0.53433000       0.90865820       0.25672000
   165  C          0.01693000       0.52264180       0.81082000
   166  C          0.48307000       0.02264180       0.68918000
   167  C         -0.01693000       0.47735820       0.18918000
   168  C          0.51693000       0.97735820       0.31082000
   169  H          0.95930000       0.47970000       0.77950000
   170  H          0.54070000       0.97970000       0.72050000
   171  H          0.04070000       0.52030000       0.22050000
   172  H          0.45930000       0.02030000       0.27950000
   173  C          0.08433000       0.51849180       0.90942000
   174  C          0.41567000       0.01849180       0.59058000
   175  C          0.91567000       0.48150820       0.09058000
   176  C          0.58433000       0.98150820       0.40942000
   177  H          0.07340000       0.47200000       0.94410000
   178  H          0.42660000       0.97200000       0.55590000
   179  H          0.92660000       0.52800000       0.05590000
   180  H          0.57340000       0.02800000       0.44410000
   181  C          0.17003000       0.58307170       0.95982000
   182  C          0.32997000       0.08307170       0.54018000
   183  C          0.82997000       0.41692830       0.04018000
   184  C          0.67003000       0.91692830       0.45982000
   185  C          0.23943000       0.58006190       0.06132000
   186  C          0.26057000       0.08006190       0.43868000
   187  C          0.76057000       0.41993810       0.93868000
   188  C          0.73943000       0.91993810       0.56132000
   189  H          0.23180000       0.53380000       0.09730000
   190  H          0.26820000       0.03380000       0.40270000
   191  H          0.76820000       0.46620000       0.90270000
   192  H          0.73180000       0.96620000       0.59730000
   193  C          0.31763000       0.64502000       0.10622000
   194  C          0.18237000       0.14502000       0.39378000
   195  C          0.68237000       0.35498000       0.89378000
   196  C          0.81763000       0.85498000       0.60622000
   197  C          0.33033000       0.71592000       0.05452000
   198  C          0.16967000       0.21592000       0.44548000
   199  C          0.66967000       0.28408000       0.94548000
   200  C          0.83033000       0.78408000       0.55452000
   201  H          0.38260000       0.76030000       0.08730000
   202  H          0.11740000       0.26030000       0.41270000
   203  H          0.61740000       0.23970000       0.91270000
   204  H          0.88260000       0.73970000       0.58730000
   205  C          0.26653000       0.71977190       0.95672000
   206  C          0.23347000       0.21977190       0.54328000
   207  C          0.73347000       0.28022810       0.04328000
   208  C          0.76653000       0.78022810       0.45672000
   209  H          0.27650000       0.76680000       0.92250000
   210  H          0.22350000       0.26680000       0.57750000
   211  H          0.72350000       0.23320000       0.07750000
   212  H          0.77650000       0.73320000       0.42250000
   213  C          0.18453000       0.65347180       0.90522000
   214  C          0.31547000       0.15347180       0.59478000
   215  C          0.81547000       0.34652820       0.09478000
   216  C          0.68453000       0.84652820       0.40522000
