data_LOHSOU
_symmetry_space_group_name_H-M    'P1'
_symmetry_Int_Tables_number       1
loop_
_symmetry_equiv_pos_site_id
_symmetry_equiv_pos_as_xyz
1 x,y,z
_cell_length_a                   4.47212
_cell_length_b                   13.27305
_cell_length_c                   35.299815
_cell_angle_alpha                90.0
_cell_angle_beta                 90.0
_cell_angle_gamma                90.0
loop_
_atom_site_label
_atom_site_type_symbol
_atom_site_fract_x
_atom_site_fract_y
_atom_site_fract_z
     1  I          0.50275120       0.39466400       0.68058200
     2  I         -0.00275120       0.60533600       0.18058200
     3  I          0.49724880       0.89466400       0.81941800
     4  I          0.00275120       0.10533600       0.31941800
     5  I          0.82593880       0.15655400       0.79959200
     6  I          0.67406120       0.84344600       0.29959200
     7  I          0.17406120       0.65655400       0.70040800
     8  I          0.32593880       0.34344600       0.20040800
     9  F          0.09101000       0.23044000       0.72048150
    10  F          0.40899000       0.76956000       0.22048150
    11  F          0.90899000       0.73044000       0.77951850
    12  F          0.59101000       0.26956000       0.27951850
    13  F          0.65971300       0.51134000       0.75788150
    14  F          0.84028700       0.48866000       0.25788150
    15  F          0.34028700       0.01134000       0.74211850
    16  F          0.15971300       0.98866000       0.24211850
    17  F          0.08911100       0.33905000       0.84733150
    18  F          0.41088900       0.66095000       0.34733150
    19  F          0.91088900       0.83905000       0.65266850
    20  F          0.58911100       0.16095000       0.15266850
    21  F          0.47101500       0.48825000       0.82966160
    22  F          0.02898500       0.51175000       0.32966160
    23  F          0.52898500       0.98825000       0.67033840
    24  F         -0.02898500       0.01175000       0.17033840
    25  C          0.37051800       0.37436000       0.73692000
    26  C          0.12948200       0.62564000       0.23692000
    27  C          0.62948200       0.87436000       0.76308000
    28  C          0.87051800       0.12564000       0.26308000
    29  C          0.46761800       0.43706000       0.76462000
    30  C          0.03238200       0.56294000       0.26462000
    31  C          0.53238200       0.93706000       0.73538000
    32  C          0.96761800       0.06294000       0.23538000
    33  C          0.17681900       0.29586000       0.74722000
    34  C          0.32318100       0.70414000       0.24722000
    35  C          0.82318100       0.79586000       0.75278000
    36  C          0.67681900       0.20414000       0.25278000
    37  C          0.17601900       0.34777000       0.81122000
    38  C          0.32398100       0.65223000       0.31122000
    39  C          0.82398100       0.84777000       0.68878000
    40  C          0.67601900       0.15223000       0.18878000
    41  C          0.08181700       0.28136000       0.78443000
    42  C          0.41818300       0.71864000       0.28443000
    43  C          0.91818300       0.78136000       0.71557000
    44  C          0.58181700       0.21864000       0.21557000
    45  C          0.37120000       0.42647000       0.80223000
    46  C          0.12880000       0.57353000       0.30223000
    47  C          0.62880000       0.92647000       0.69777000
    48  C          0.87120000       0.07353000       0.19777000
    49  Br         0.19773000       0.83344700       0.54618300
    50  Br         0.30227000       0.16655300       0.04618300
    51  Br         0.80227000       0.33344700       0.95381700
    52  Br         0.69773000       0.66655300       0.45381700
    53  O          0.30331400       0.23635000       0.53068190
    54  O          0.19668600       0.76365000       0.03068190
    55  O          0.69668600       0.73635000       0.96931810
    56  O          0.80331400       0.26365000       0.46931810
    57  O          0.44031500       0.08575000       0.51465190
    58  O          0.05968500       0.91425000       0.01465190
    59  O          0.55968500       0.58575000       0.98534810
    60  O          0.94031500       0.41425000       0.48534810
    61  N          0.45811500       0.16156000       0.53452000
    62  N          0.04188500       0.83844000       0.03452000
    63  N          0.54188500       0.66156000       0.96548000
    64  N          0.95811500       0.33844000       0.46548000
    65  N          0.60471400       0.41815000       0.59812000
    66  N          0.89528600       0.58185000       0.09812000
    67  N          0.39528600       0.91815000       0.90188000
    68  N          0.10471400       0.08185000       0.40188000
    69  C          0.95581900       0.24077000       0.61473000
    70  C          0.54418100       0.75923000       0.11473000
    71  C          0.04418100       0.74077000       0.88527000
    72  C          0.45581900       0.25923000       0.38527000
    73  H          0.01193800       0.29931400       0.62837800
    74  H          0.48806200       0.70068600       0.12837800
    75  H         -0.01193800       0.79931400       0.87162200
    76  H          0.51193800       0.20068600       0.37162200
    77  C          0.31220000       0.52577000       0.55473000
    78  C          0.18780000       0.47423000       0.05473000
    79  C          0.68780000       0.02577000       0.94527000
    80  C          0.81220000       0.97423000       0.44527000
    81  H          0.23858100       0.46749700       0.54211300
    82  H          0.26141900       0.53250300       0.04211300
    83  H          0.76141900       0.96749700       0.95788700
    84  H          0.73858100       0.03250300       0.45788700
    85  C          0.51120000       0.51416000       0.58482000
    86  C         -0.01120000       0.48584000       0.08482000
    87  C          0.48880000       0.01416000       0.91518000
    88  C          0.01120000       0.98584000       0.41518000
    89  C          0.68021800       0.16076000       0.56562000
    90  C          0.81978200       0.83924000       0.06562000
    91  C          0.31978200       0.66076000       0.93438000
    92  C          0.18021800       0.33924000       0.43438000
    93  C          0.75791600       0.24926000       0.58432000
    94  C          0.74208400       0.75074000       0.08432000
    95  C          0.24208400       0.74926000       0.91568000
    96  C          0.25791600       0.25074000       0.41568000
    97  C          0.51930000       0.69477000       0.59213000
    98  C         -0.01930000       0.30523000       0.09213000
    99  C          0.48070000       0.19477000       0.90787000
   100  C          0.01930000       0.80523000       0.40787000
   101  H          0.58871800       0.75319600       0.60483900
   102  H          0.91128200       0.24680400       0.10483900
   103  H          0.41128200       0.25319600       0.89516100
   104  H          0.08871800       0.74680400       0.39516100
   105  C          0.65771700       0.35216000       0.57282000
   106  C          0.84228300       0.64784000       0.07282000
   107  C          0.34228300       0.85216000       0.92718000
   108  C          0.15771700       0.14784000       0.42718000
   109  H          0.63370400       0.36819600       0.54672200
   110  H          0.86629600       0.63180400       0.04672200
   111  H          0.36629600       0.86819600       0.95327800
   112  H          0.13370400       0.13180400       0.45327800
   113  C          0.32720000       0.70296000       0.56173000
   114  C          0.17280000       0.29704000       0.06173000
   115  C          0.67280000       0.20296000       0.93827000
   116  C          0.82720000       0.79704000       0.43827000
   117  C          0.79920000       0.06776000       0.57563000
   118  C          0.70080000       0.93224000       0.07563000
   119  C          0.20080000       0.56776000       0.92437000
   120  C          0.29920000       0.43224000       0.42437000
   121  H          0.74478700       0.00861300       0.56200900
   122  H          0.75521300      -0.00861300       0.06200900
   123  H          0.25521300       0.50861300       0.93799100
   124  H          0.24478700       0.49138700       0.43799100
   125  C          0.07241800       0.14767000       0.62523000
   126  C          0.42758200       0.85233000       0.12523000
   127  C          0.92758200       0.64767000       0.87477000
   128  C          0.57241800       0.35233000       0.37477000
   129  H          0.20470600       0.14320700       0.64622600
   130  H          0.29529400       0.85679300       0.14622600
   131  H          0.79529400       0.64320700       0.85377400
   132  H          0.70470600       0.35679300       0.35377400
   133  C          0.60820000       0.59927000       0.60393000
   134  C          0.89180000       0.40073000       0.10393000
   135  C          0.39180000       0.09927000       0.89607000
   136  C          0.10820000       0.90073000       0.39607000
   137  H          0.73614400       0.59243900       0.62518700
   138  H          0.76385600       0.40756100       0.12518700
   139  H          0.26385600       0.09243900       0.87481300
   140  H          0.23614400       0.90756100       0.37481300
   141  C          0.22020000       0.61907000       0.54303000
   142  C          0.27980000       0.38093000       0.04303000
   143  C          0.77980000       0.11907000       0.95697000
   144  C          0.72020000       0.88093000       0.45697000
   145  H          0.08476600       0.62590100       0.52231000
   146  H          0.41523400       0.37409900       0.02231000
   147  H          0.91523400       0.12590100       0.97769000
   148  H          0.58476600       0.87409900       0.47769000
   149  C         -0.00180000       0.06267000       0.60562000
   150  C          0.50180000       0.93733000       0.10562000
   151  C          0.00180000       0.56267000       0.89438000
   152  C          0.49820000       0.43733000       0.39438000
   153  H          0.08227500      -0.00036400       0.61260000
   154  H          0.41772500       0.00036400       0.11260000
   155  H          0.91772500       0.49963600       0.88740000
   156  H          0.58227500       0.50036400       0.38740000
