data_LOKJIH
_symmetry_space_group_name_H-M    'P1'
_symmetry_Int_Tables_number       1
loop_
_symmetry_equiv_pos_site_id
_symmetry_equiv_pos_as_xyz
1 x,y,z
_cell_length_a                   8.93789
_cell_length_b                   8.98339
_cell_length_c                   25.6673
_cell_angle_alpha                90.0
_cell_angle_beta                 90.0
_cell_angle_gamma                90.0
loop_
_atom_site_label
_atom_site_type_symbol
_atom_site_fract_x
_atom_site_fract_y
_atom_site_fract_z
     1  O          0.55153000       0.41722000       0.63360100
     2  O          0.94847000       0.58278000       0.13360100
     3  O          0.44847000       0.91722000       0.86639900
     4  O          0.05153000       0.08278000       0.36639900
     5  O          0.35843000       0.55283000       0.61346100
     6  O          0.14157000       0.44717000       0.11346100
     7  O          0.64157000       0.05283000       0.88653900
     8  O          0.85843000       0.94717000       0.38653900
     9  O          0.88223000       0.81823000       0.49632100
    10  O          0.61777000       0.18177000      -0.00367900
    11  O          0.11777000       0.31823000       0.00367900
    12  O          0.38223000       0.68177000       0.50367900
    13  O          0.67053000       0.93403000       0.48553900
    14  O          0.82947000       0.06597000       0.98553900
    15  O          0.32947000       0.43403000       0.01446100
    16  O          0.17053000       0.56597000       0.51446100
    17  O          0.83843000       0.18913000       0.64550110
    18  O          0.66157000       0.81087000       0.14550110
    19  O          0.16157000       0.68913000       0.85449890
    20  O          0.33843000       0.31087000       0.35449890
    21  O          0.76833000       0.15933000       0.56438110
    22  O          0.73167000       0.84067000       0.06438110
    23  O          0.23167000       0.65933000       0.93561890
    24  O          0.26833000       0.34067000       0.43561890
    25  O          0.12203000       0.89154000       0.67242110
    26  O          0.37797000       0.10846000       0.17242110
    27  O          0.87797000       0.39154000       0.82757890
    28  O          0.62203000       0.60846000       0.32757890
    29  O          0.12332000       0.81483000       0.59251900
    30  O          0.37668000       0.18517000       0.09251900
    31  O          0.87668000       0.31483000       0.90748100
    32  O          0.62332000       0.68517000       0.40748100
    33  O          0.93993000       0.65373000       0.74859100
    34  O          0.56007000       0.34627000       0.24859100
    35  O          0.06007000       0.15373000       0.75140900
    36  O          0.43993000       0.84627000       0.25140900
    37  O          0.82123000       0.46803000       0.71354100
    38  O          0.67877000       0.53197000       0.21354100
    39  O          0.17877000       0.96803000       0.78645900
    40  O          0.32123000       0.03197000       0.28645900
    41  O          0.55423000       0.83703000       0.76128900
    42  O          0.94577000       0.16297000       0.26128900
    43  O          0.44577000       0.33703000       0.73871100
    44  O          0.05423000       0.66297000       0.23871100
    45  O          0.40253000       0.70023000       0.71460100
    46  O          0.09747000       0.29977000       0.21460100
    47  O          0.59747000       0.20023000       0.78539900
    48  O          0.90253000       0.79977000       0.28539900
    49  N          0.58163000       0.66043000       0.62001100
    50  N          0.91837000       0.33957000       0.12001100
    51  N          0.41837000       0.16043000       0.87998900
    52  N          0.08163000       0.83957000       0.37998900
    53  N          0.49003000       0.53403000       0.62339100
    54  N          0.00997000       0.46597000       0.12339100
    55  N          0.50997000       0.03403000       0.87660900
    56  N         -0.00997000       0.96597000       0.37660900
    57  N          0.72273000       0.83213000       0.56262900
    58  N          0.77727000       0.16787000       0.06262900
    59  N          0.27727000       0.33213000       0.93737100
    60  N          0.22273000       0.66787000       0.43737100
    61  N          0.76243000       0.86613000       0.51076110
    62  N          0.73757000       0.13387000       0.01076110
    63  N          0.23757000       0.36613000       0.98923890
    64  N          0.26243000       0.63387000       0.48923890
    65  N          0.66233000       0.02453000       0.62617100
    66  N          0.83767000       0.97547000       0.12617100
    67  N          0.33767000       0.52453000       0.87382900
    68  N          0.16233000       0.47547000       0.37382900
    69  N          0.76403000       0.13143000       0.61084130
    70  N          0.73597000       0.86857000       0.11084130
    71  N          0.23597000       0.63143000       0.88915870
    72  N          0.26403000       0.36857000       0.38915870
    73  N          0.90313000       0.85823000       0.63121100
    74  N          0.59687000       0.14177000       0.13121100
    75  N          0.09687000       0.35823000       0.86878900
    76  N          0.40313000       0.64177000       0.36878900
    77  N          0.06233000       0.85133000       0.63271110
    78  N          0.43767000       0.14867000       0.13271110
    79  N          0.93767000       0.35133000       0.86728890
    80  N          0.56233000       0.64867000       0.36728890
    81  N          0.77073000       0.69853000       0.68526900
    82  N          0.72927000       0.30147000       0.18526900
    83  N          0.22927000       0.19853000       0.81473100
    84  N          0.27073000       0.80147000       0.31473100
    85  N          0.85243000       0.59843000       0.71819100
    86  N          0.64757000       0.40157000       0.21819100
    87  N          0.14757000       0.09843000       0.78180900
    88  N          0.35243000       0.90157000       0.28180900
    89  N          0.53873000       0.87573000       0.67618900
    90  N          0.96127000       0.12427000       0.17618900
    91  N          0.46127000       0.37573000       0.82381100
    92  N          0.03873000       0.62427000       0.32381100
    93  N          0.49593000       0.79793000       0.72041110
    94  N          0.00407000       0.20207000       0.22041110
    95  N          0.50407000       0.29793000       0.77958890
    96  N         -0.00407000       0.70207000       0.27958890
    97  C          0.51513000       0.80643000       0.62427110
    98  C         -0.01513000       0.19357000       0.12427110
    99  C          0.48487000       0.30643000       0.87572890
   100  C          0.01513000       0.69357000       0.37572890
   101  H          0.40880000       0.80432300       0.61496900
   102  H          0.09120000       0.19567700       0.11496900
   103  H          0.59120000       0.30432300       0.88503100
   104  H          0.90880000       0.69567700       0.38503100
   105  C          0.60543000       0.91513000       0.58785120
   106  C          0.89457000       0.08487000       0.08785120
   107  C          0.39457000       0.41513000       0.91214880
   108  C          0.10543000       0.58487000       0.41214880
   109  H          0.53959000       0.96271800       0.56225600
   110  H          0.96041000       0.03728200       0.06225600
   111  H          0.46041000       0.46271800       0.93774400
   112  H          0.03959000       0.53728200       0.43774400
   113  C          0.82813000       0.75423000       0.59537110
   114  C          0.67187000       0.24577000       0.09537110
   115  C          0.17187000       0.25423000       0.90462890
   116  C          0.32813000       0.74577000       0.40462890
   117  H          0.90120500       0.69940800       0.57436900
   118  H          0.59879500       0.30059200       0.07436900
   119  H          0.09879500       0.19940800       0.92563100
   120  H          0.40120500       0.80059200       0.42563100
   121  C          0.73803000       0.64583000       0.63205110
   122  C          0.76197000       0.35417000       0.13205110
   123  C          0.26197000       0.14583000       0.86794890
   124  C          0.23803000       0.85417000       0.36794890
   125  H          0.77135300       0.54271800       0.62739300
   126  H          0.72864700       0.45728200       0.12739300
   127  H          0.22864700       0.04271800       0.87260700
   128  H          0.27135300       0.95728200       0.37260700
   129  C          0.82403000       0.85223000       0.68139110
   130  C          0.67597000       0.14777000       0.18139110
   131  C          0.17597000       0.35223000       0.81860890
   132  C          0.32403000       0.64777000       0.31860890
   133  H          0.88895400       0.87954500       0.71062800
   134  H          0.61104600       0.12045500       0.21062800
   135  H          0.11104600       0.37954500       0.78937200
   136  H          0.38895400       0.62045500       0.28937200
   137  C          0.68083000       0.95703000       0.67737120
   138  C          0.81917000       0.04297000       0.17737120
   139  C          0.31917000       0.45703000       0.82262880
   140  C          0.18083000       0.54297000       0.32262880
   141  H          0.68094600       0.03265800       0.70489600
   142  H          0.81905400       0.96734200       0.20489600
   143  H          0.31905400       0.53265800       0.79510400
   144  H          0.18094600       0.46734200       0.29510400
   145  O          0.16143000       0.41423000       0.69022100
   146  O          0.33857000       0.58577000       0.19022100
   147  O          0.83857000       0.91423000       0.80977900
   148  O          0.66143000       0.08577000       0.30977900
   149  O          0.02803000       0.49223000       0.62479100
   150  O          0.47197000       0.50777000       0.12479100
   151  O          0.97197000      -0.00777000       0.87520900
   152  O          0.52803000       0.00777000       0.37520900
   153  O          0.31935000       0.00134000       0.48897140
   154  O          0.18065000      -0.00134000       0.98897140
   155  O          0.68065000       0.50134000       0.01102860
   156  O          0.81935000       0.49866000       0.51102860
   157  O          0.09195000       0.07894000       0.47776130
   158  O          0.40805000       0.92106000       0.97776130
   159  O          0.90805000       0.57894000       0.02223870
   160  O          0.59195000       0.42106000       0.52223870
   161  N          0.16583000       0.28863000       0.61534100
   162  N          0.33417000       0.71137000       0.11534100
   163  N          0.83417000       0.78863000       0.88465900
   164  N          0.66583000       0.21137000       0.38465900
   165  N          0.31573000       0.11073000       0.58893130
   166  N          0.18427000       0.88927000       0.08893130
   167  N          0.68427000       0.61073000       0.91106870
   168  N          0.81573000       0.38927000       0.41106870
   169  N          0.20665000       0.06864000       0.50301130
   170  N          0.29335000       0.93136000       0.00301130
   171  N          0.79335000       0.56864000      -0.00301130
   172  N          0.70665000       0.43136000       0.49698870
   173  N          0.11343000       0.40843000       0.64649110
   174  N          0.38657000       0.59157000       0.14649110
   175  N          0.88657000       0.90843000       0.85350890
   176  N          0.61343000       0.09157000       0.35350890
   177  C          0.21094000       0.14603000       0.55191130
   178  C          0.28906000       0.85397000       0.05191130
   179  C          0.78906000       0.64603000       0.94808870
   180  C          0.71094000       0.35397000       0.44808870
   181  C          0.11754000       0.25634000       0.56626130
   182  C          0.38246000       0.74366000       0.06626130
   183  C          0.88246000       0.75634000       0.93373870
   184  C          0.61754000       0.24366000       0.43373870
   185  H          0.03982500       0.29939600       0.54745900
   186  H          0.46017500       0.70060400       0.04745900
   187  H          0.96017500       0.79939600       0.95254100
   188  H          0.53982500       0.20060400       0.45254100
   189  C          0.28604000       0.19963000       0.62734150
   190  C          0.21396000       0.80037000       0.12734150
   191  C          0.71396000       0.69963000       0.87265850
   192  C          0.78604000       0.30037000       0.37265850
   193  H          0.33855100       0.20272100       0.65859000
   194  H          0.16144900       0.79727900       0.15859000
   195  H          0.66144900       0.70272100       0.84141000
   196  H          0.83855100       0.29727900       0.34141000
