data_LOLDID
_symmetry_space_group_name_H-M    'P1'
_symmetry_Int_Tables_number       1
loop_
_symmetry_equiv_pos_site_id
_symmetry_equiv_pos_as_xyz
1 x,y,z
_cell_length_a                   10.650316
_cell_length_b                   11.157717
_cell_length_c                   12.009818
_cell_angle_alpha                109.9864
_cell_angle_beta                 98.7654
_cell_angle_gamma                97.2185
loop_
_atom_site_label
_atom_site_type_symbol
_atom_site_fract_x
_atom_site_fract_y
_atom_site_fract_z
     1  S          0.68876200       0.37233200       0.42113200
     2  S          0.31123800       0.62766800       0.57886800
     3  F          0.93670800       0.79664300       0.92465300
     4  F          0.06329200       0.20335700       0.07534700
     5  O          0.56313700       0.11237800       0.21238700
     6  O          0.43686300       0.88762200       0.78761300
     7  N          0.86878800       0.31665800       0.29904700
     8  N          0.13121200       0.68334200       0.70095300
     9  N          0.96498900       0.35494900       0.28614800
    10  N          0.03501100       0.64505100       0.71385200
    11  C          0.75126900       0.26738900       0.30869900
    12  C          0.24873100       0.73261100       0.69130100
    13  C          0.67945100       0.14164900       0.21989900
    14  C          0.32054900       0.85835100       0.78010100
    15  C          0.75297100       0.05421900       0.14226900
    16  C          0.24702900       0.94578100       0.85773100
    17  C          0.69581100      -0.01254100       0.01942900
    18  C          0.30418900       0.01254100       0.98057100
    19  H          0.61411500       0.00117500       0.98707300
    20  H          0.38588500      -0.00117500       0.01292700
    21  C          0.75862110       0.90123900       0.94494900
    22  C          0.24137890       0.09876100       0.05505100
    23  H          0.72193300       0.85656500       0.86113800
    24  H          0.27806700       0.14343500       0.13886200
    25  C          0.87596110       0.88234900      -0.00368100
    26  C          0.12403890       0.11765100       0.00368100
    27  C          0.93466110       0.94603900       0.11707100
    28  C          0.06533890       0.05396100       0.88292900
    29  H          0.01538600       0.93007200       0.14897900
    30  H         -0.01538600       0.06992800       0.85102100
    31  C          0.87248100       0.03432100       0.19090900
    32  C          0.12751900       0.96567900       0.80909100
    33  H          0.91133200       0.08073700       0.27400600
    34  H          0.08866800       0.91926300       0.72599400
    35  C          0.60553100       0.27386900       0.48692900
    36  C          0.39446900       0.72613100       0.51307100
    37  C          0.47254900       0.27157900       0.46305900
    38  C          0.52745100       0.72842100       0.53694100
    39  C          0.43504900       0.34210900       0.38414900
    40  C          0.56495100       0.65789100       0.61585100
    41  C          0.54024900       0.39556900       0.34788900
    42  C          0.45975100       0.60443100       0.65211100
    43  C          0.52936100       0.46644100       0.27303900
    44  C          0.47063900       0.53355900       0.72696100
    45  H          0.60288600       0.50129200       0.25010900
    46  H          0.39711400       0.49870800       0.74989100
    47  C          0.40549100       0.48425100       0.23287900
    48  C          0.59450900       0.51574900       0.76712100
    49  H          0.39344800       0.53092500       0.18033400
    50  H          0.60655200       0.46907500       0.81966600
    51  C          0.29925100       0.43394100       0.26942900
    52  C          0.70074900       0.56605900       0.73057100
    53  H          0.21600600       0.44858800       0.24248400
    54  H          0.78399400       0.55141200       0.75751600
    55  C          0.31237100       0.36253100       0.34467900
    56  C          0.68762900       0.63746900       0.65532100
    57  H          0.23908200       0.32855700       0.36848100
    58  H          0.76091800       0.67144300       0.63151900
    59  C          0.39372100       0.20752100       0.51638900
    60  C          0.60627900       0.79247900       0.48361100
    61  H          0.30280000       0.20349100       0.50137700
    62  H          0.69720000       0.79650900       0.49862300
    63  C          0.45074110       0.14970100       0.59190100
    64  C          0.54925890       0.85029900       0.40809900
    65  H          0.39771600       0.10558800       0.62816900
    66  H          0.60228400       0.89441200       0.37183100
    67  C          0.58420110       0.15522110       0.61542100
    68  C          0.41579890       0.84477890       0.38457900
    69  H          0.62065400       0.11535700       0.66768800
    70  H          0.37934600       0.88464300       0.33231200
    71  C          0.66453100       0.21848100       0.56316100
    72  C          0.33546900       0.78151900       0.43683900
    73  H          0.75558000       0.22347900       0.57899000
    74  H          0.24442000       0.77652100       0.42101000
    75  S          0.93961200       0.68196200       0.43095200
    76  S          0.06038800       0.31803800       0.56904800
    77  F          0.95737110       0.72136100       0.23022800
    78  F          0.04262890       0.27863900       0.76977200
    79  F          0.84755700       0.84383800       0.34081700
    80  F          0.15244300       0.15616200       0.65918300
    81  F          0.05488800       0.88243800       0.39272100
    82  F          0.94511200       0.11756200       0.60727900
    83  O          0.82526800       0.58474800       0.36226800
    84  O          0.17473200       0.41525200       0.63773200
    85  O          0.92682800       0.76967900       0.54729700
    86  O          0.07317200       0.23032100       0.45270300
    87  O          0.05989800       0.63435800       0.43112800
    88  O          0.94010200       0.36564200       0.56887200
    89  C          0.95041110       0.78768110       0.34402110
    90  C          0.04958890       0.21231890       0.65597890
    91  O          0.38000800       0.65698800       0.05618800
    92  O          0.61999200       0.34301200       0.94381200
    93  C          0.49234120       0.74117120       0.05689110
    94  C          0.50765880       0.25882880       0.94310890
    95  H          0.49493300       0.83074700       0.11290000
    96  H          0.50506700       0.16925300       0.88710000
    97  H          0.49088400       0.74238100       0.97466600
    98  H          0.50911600       0.25761900       0.02533400
    99  C          0.60986120       0.69188120       0.09768110
   100  C          0.39013880       0.30811880       0.90231890
   101  H          0.60468600       0.60195900       0.04371100
   102  H          0.39531400       0.39804100       0.95628900
   103  H          0.61295600       0.69532400       0.18070600
   104  H          0.38704400       0.30467600       0.81929400
   105  H          0.68822400       0.74635900       0.09508400
   106  H          0.31177600       0.25364100       0.90491600
   107  C          0.26404130       0.69340150       0.01681140
   108  C          0.73595870       0.30659850       0.98318860
   109  H          0.25941800       0.69248900       0.93355800
   110  H          0.74058200       0.30751100       0.06644200
   111  H          0.26160000       0.78248900       0.07077700
   112  H          0.73840000       0.21751100       0.92922300
   113  C          0.15099150       0.59906180       0.01903190
   114  C          0.84900850       0.40093820       0.98096810
   115  H          0.15535700       0.51080500       0.96723900
   116  H          0.84464300       0.48919500       0.03276100
   117  H          0.07000800       0.62175400      -0.01097100
   118  H          0.92999200       0.37824600       0.01097100
   119  H          0.15406400       0.60325200       0.10227300
   120  H          0.84593600       0.39674800       0.89772700
