data_LOMHUR
_symmetry_space_group_name_H-M    'P1'
_symmetry_Int_Tables_number       1
loop_
_symmetry_equiv_pos_site_id
_symmetry_equiv_pos_as_xyz
1 x,y,z
_cell_length_a                   15.3233
_cell_length_b                   5.49019
_cell_length_c                   23.2104
_cell_angle_alpha                90.0
_cell_angle_beta                 101.0362
_cell_angle_gamma                90.0
loop_
_atom_site_label
_atom_site_type_symbol
_atom_site_fract_x
_atom_site_fract_y
_atom_site_fract_z
     1  S          0.63309600       0.06326150       0.33431400
     2  S          0.63309600       0.93673850       0.83431400
     3  S          0.13309600       0.56326150       0.33431400
     4  S          0.13309600       0.43673850       0.83431400
     5  O          0.97975170       0.82955000       0.41619110
     6  O          0.97975170       0.17045000       0.91619110
     7  O          0.47975170       0.32955000       0.41619110
     8  O          0.47975170       0.67045000       0.91619110
     9  O          0.91462000       0.84226000       0.49377130
    10  O          0.91462000       0.15774000       0.99377130
    11  O          0.41462000       0.34226000       0.49377130
    12  O          0.41462000       0.65774000       0.99377130
    13  H          0.95240000       0.94700000       0.50440000
    14  H          0.95240000       0.05300000       0.00440000
    15  H          0.45240000       0.44700000       0.50440000
    16  H          0.45240000       0.55300000       0.00440000
    17  O          0.66373160       0.93745000       0.28822110
    18  O          0.66373160       0.06255000       0.78822110
    19  O          0.16373160       0.43745000       0.28822110
    20  O          0.16373160       0.56255000       0.78822110
    21  O          0.60417170       0.92895000       0.37988110
    22  O          0.60417170       0.07105000       0.87988110
    23  O          0.10417170       0.42895000       0.37988110
    24  O          0.10417170       0.57105000       0.87988110
    25  O          0.43542000       0.60606000       0.26970130
    26  O          0.43542000       0.39394000       0.76970130
    27  O          0.93542000       0.10606000       0.26970130
    28  O          0.93542000       0.89394000       0.76970130
    29  O          0.49602000       0.68266000       0.19158120
    30  O          0.49602000       0.31734000       0.69158120
    31  O         -0.00398000       0.18266000       0.19158120
    32  O         -0.00398000       0.81734000       0.69158120
    33  H          0.45970000       0.79400000       0.18600000
    34  H          0.45970000       0.20600000       0.68600000
    35  H          0.95970000       0.29400000       0.18600000
    36  H          0.95970000       0.70600000       0.68600000
    37  N          0.55097190       0.23476000       0.30488130
    38  N          0.55097190       0.76524000       0.80488130
    39  N          0.05097190       0.73476000       0.30488130
    40  N          0.05097190       0.26524000       0.80488130
    41  H          0.50210000       0.23650000       0.31800000
    42  H          0.50210000       0.76350000       0.81800000
    43  H          0.00210000       0.73650000       0.31800000
    44  H          0.00210000       0.26350000       0.81800000
    45  C          0.92122000       0.76397000       0.44114160
    46  C          0.92122000       0.23603000       0.94114160
    47  C          0.42122000       0.26397000       0.44114160
    48  C          0.42122000       0.73603000       0.94114160
    49  C          0.85032000       0.58637000       0.41602160
    50  C          0.85032000       0.41363000       0.91602160
    51  C          0.35032000       0.08637000       0.41602160
    52  C          0.35032000       0.91363000       0.91602160
    53  C          0.86482000       0.43037000       0.37219160
    54  C          0.86482000       0.56963000       0.87219160
    55  C          0.36482000       0.93037000       0.37219160
    56  C          0.36482000       0.06963000       0.87219160
    57  H          0.91840000       0.43610000       0.35900000
    58  H          0.91840000       0.56390000       0.85900000
    59  H          0.41840000       0.93610000       0.35900000
    60  H          0.41840000       0.06390000       0.85900000
    61  C          0.80022000       0.26597000       0.34793160
    62  C          0.80022000       0.73403000       0.84793160
    63  C          0.30022000       0.76597000       0.34793160
    64  C          0.30022000       0.23403000       0.84793160
    65  H          0.81060000       0.15810000       0.31910000
    66  H          0.81060000       0.84190000       0.81910000
    67  H          0.31060000       0.65810000       0.31910000
    68  H          0.31060000       0.34190000       0.81910000
    69  C          0.71882000       0.26167000       0.36678150
    70  C          0.71882000       0.73833000       0.86678150
    71  C          0.21882000       0.76167000       0.36678150
    72  C          0.21882000       0.23833000       0.86678150
    73  C          0.70382000       0.41937000       0.41064160
    74  C          0.70382000       0.58063000       0.91064160
    75  C          0.20382000       0.91937000       0.41064160
    76  C          0.20382000       0.08063000       0.91064160
    77  H          0.64960000       0.41830000       0.42320000
    78  H          0.64960000       0.58170000       0.92320000
    79  H          0.14960000       0.91830000       0.42320000
    80  H          0.14960000       0.08170000       0.92320000
    81  C          0.77052000       0.57747000       0.43528170
    82  C          0.77052000       0.42253000       0.93528170
    83  C          0.27052000       0.07747000       0.43528170
    84  C          0.27052000       0.92253000       0.93528170
    85  H          0.76150000       0.68010000       0.46550000
    86  H          0.76150000       0.31990000       0.96550000
    87  H          0.26150000       0.18010000       0.46550000
    88  H          0.26150000       0.81990000       0.96550000
    89  C          0.56263000       0.38628000       0.25540170
    90  C          0.56263000       0.61372000       0.75540170
    91  C          0.06263000       0.88628000       0.25540170
    92  C          0.06263000       0.11372000       0.75540170
    93  H          0.56380000       0.28320000       0.22160000
    94  H          0.56380000       0.71680000       0.72160000
    95  H          0.06380000       0.78320000       0.22160000
    96  H          0.06380000       0.21680000       0.72160000
    97  H          0.61920000       0.47010000       0.26500000
    98  H          0.61920000       0.52990000       0.76500000
    99  H          0.11920000       0.97010000       0.26500000
   100  H          0.11920000       0.02990000       0.76500000
   101  C          0.48993000       0.56927000       0.24008190
   102  C          0.48993000       0.43073000       0.74008190
   103  C         -0.01007000       0.06927000       0.24008190
   104  C         -0.01007000       0.93073000       0.74008190
   105  N          0.87622000       0.51337000       0.15801160
   106  N          0.87622000       0.48663000       0.65801160
   107  N          0.37622000       0.01337000       0.15801160
   108  N          0.37622000      -0.01337000       0.65801160
   109  N          0.54522000       0.36536000       0.03928150
   110  N          0.54522000       0.63464000       0.53928150
   111  N          0.04522000       0.86536000       0.03928150
   112  N          0.04522000       0.13464000       0.53928150
   113  C          0.86303000       0.57738000       0.10132000
   114  C          0.86303000       0.42262000       0.60132000
   115  C          0.36303000       0.07738000       0.10132000
   116  C          0.36303000       0.92262000       0.60132000
   117  H          0.89750000       0.50410000       0.07720000
   118  H          0.89750000       0.49590000       0.57720000
   119  H          0.39750000       0.00410000       0.07720000
   120  H          0.39750000      -0.00410000       0.57720000
   121  C          0.80003000       0.74838000       0.07694180
   122  C          0.80003000       0.25162000       0.57694180
   123  C          0.30003000       0.24838000       0.07694180
   124  C          0.30003000       0.75162000       0.57694180
   125  H          0.79380000       0.79120000       0.03760000
   126  H          0.79380000       0.20880000       0.53760000
   127  H          0.29380000       0.29120000       0.03760000
   128  H          0.29380000       0.70880000       0.53760000
   129  C          0.74633000       0.85507000       0.11177160
   130  C          0.74633000       0.14493000       0.61177160
   131  C          0.24633000       0.35507000       0.11177160
   132  C          0.24633000       0.64493000       0.61177160
   133  C          0.76093000       0.79138000       0.17056170
   134  C          0.76093000       0.20862000       0.67056170
   135  C          0.26093000       0.29138000       0.17056170
   136  C          0.26093000       0.70862000       0.67056170
   137  H          0.72770000       0.86140000       0.19580000
   138  H          0.72770000       0.13860000       0.69580000
   139  H          0.22770000       0.36140000       0.19580000
   140  H          0.22770000       0.63860000       0.69580000
   141  C          0.82623000       0.62089000       0.19082190
   142  C          0.82623000       0.37911000       0.69082190
   143  C          0.32623000       0.12089000       0.19082190
   144  C          0.32623000       0.87911000       0.69082190
   145  H          0.83540000       0.57920000       0.23040000
   146  H          0.83540000       0.42080000       0.73040000
   147  H          0.33540000       0.07920000       0.23040000
   148  H          0.33540000       0.92080000       0.73040000
   149  C          0.58413000       0.37398000       0.09502000
   150  C          0.58413000       0.62602000       0.59502000
   151  C          0.08413000       0.87398000       0.09502000
   152  C          0.08413000       0.12602000       0.59502000
   153  H          0.56640000       0.49390000       0.11860000
   154  H          0.56640000       0.50610000       0.61860000
   155  H          0.06640000      -0.00610000       0.11860000
   156  H          0.06640000       0.00610000       0.61860000
   157  C          0.64973000       0.21398000       0.12005180
   158  C          0.64973000       0.78602000       0.62005180
   159  C          0.14973000       0.71398000       0.12005180
   160  C          0.14973000       0.28602000       0.62005180
   161  H          0.67560000       0.22810000       0.15960000
   162  H          0.67560000       0.77190000       0.65960000
   163  H          0.17560000       0.72810000       0.15960000
   164  H          0.17560000       0.27190000       0.65960000
   165  C          0.67682000       0.03327000       0.08653160
   166  C          0.67682000       0.96673000       0.58653160
   167  C          0.17682000       0.53327000       0.08653160
   168  C          0.17682000       0.46673000       0.58653160
   169  C          0.63663000       0.03078000       0.02794150
   170  C          0.63663000       0.96922000       0.52794150
   171  C          0.13663000       0.53078000       0.02794150
   172  C          0.13663000       0.46922000       0.52794150
   173  H          0.65380000       0.91540000       0.00290000
   174  H          0.65380000       0.08460000       0.50290000
   175  H          0.15380000       0.41540000       0.00290000
   176  H          0.15380000       0.58460000       0.50290000
   177  C          0.57163000       0.19708000       0.00624180
   178  C          0.57163000       0.80292000       0.50624180
   179  C          0.07163000       0.69708000       0.00624180
   180  C          0.07163000       0.30292000       0.50624180
   181  H          0.54530000       0.19010000       0.96670000
   182  H          0.54530000       0.80990000       0.46670000
   183  H          0.04530000       0.69010000       0.96670000
   184  H          0.04530000       0.30990000       0.46670000
