data_LOPQIQ
_symmetry_space_group_name_H-M    'P1'
_symmetry_Int_Tables_number       1
loop_
_symmetry_equiv_pos_site_id
_symmetry_equiv_pos_as_xyz
1 x,y,z
_cell_length_a                   8.8401
_cell_length_b                   11.2152
_cell_length_c                   15.4542
_cell_angle_alpha                70.951
_cell_angle_beta                 85.291
_cell_angle_gamma                74.082
loop_
_atom_site_label
_atom_site_type_symbol
_atom_site_fract_x
_atom_site_fract_y
_atom_site_fract_z
     1  I          0.94523600       0.33883500       0.46449400
     2  I          0.05476400       0.66116500       0.53550600
     3  I          0.63852600       0.24600500       0.47007400
     4  I          0.36147400       0.75399500       0.52992600
     5  I          0.75847700       0.41340600       0.63144400
     6  I          0.24152300       0.58659400       0.36855600
     7  S          0.38853000       0.18553000       0.47852000
     8  S          0.61147000       0.81447000       0.52148000
     9  S          0.58153000       0.46633000       0.75092000
    10  S          0.41847000       0.53367000       0.24908000
    11  N          0.49410000       0.15229000       0.31796000
    12  N          0.50590000       0.84771000       0.68204000
    13  H          0.48440000       0.13300000       0.26890000
    14  H          0.51560000       0.86700000       0.73110000
    15  H          0.57730000       0.17580000       0.32530000
    16  H          0.42270000       0.82420000       0.67470000
    17  N          0.26110000       0.10979000       0.36817000
    18  N          0.73890000       0.89021000       0.63183000
    19  H          0.25240000       0.09070000       0.31880000
    20  H          0.74760000       0.90930000       0.68120000
    21  H          0.18780000       0.10490000       0.40930000
    22  H          0.81220000       0.89510000       0.59070000
    23  N          0.60910000       0.55099000       0.88117000
    24  N          0.39090000       0.44901000       0.11883000
    25  H          0.65340000       0.58270000       0.91380000
    26  H          0.34660000       0.41730000       0.08620000
    27  H          0.51610000       0.53960000       0.89450000
    28  H          0.48390000       0.46040000       0.10550000
    29  N          0.82510000       0.53710000       0.79228000
    30  N          0.17490000       0.46290000       0.20772000
    31  H          0.86860000       0.56930000       0.82520000
    32  H          0.13140000       0.43070000       0.17480000
    33  H          0.87630000       0.51710000       0.74610000
    34  H          0.12370000       0.48290000       0.25390000
    35  C          0.38510000       0.14568000       0.38057000
    36  C          0.61490000       0.85432000       0.61943000
    37  C          0.68410000       0.52019000       0.81197000
    38  C          0.31590000       0.47981000       0.18803000
    39  I          0.72590700       0.62207600       0.34822400
    40  I          0.27409300       0.37792400       0.65177600
    41  I          0.53066700       0.85336600       0.24310500
    42  I          0.46933300       0.14663400       0.75689500
    43  I          0.63020700       0.18034600       0.03242400
    44  I          0.36979300       0.81965400       0.96757600
    45  I          0.30434700       0.14984600       0.10099500
    46  I          0.69565300       0.85015400       0.89900500
    47  S          0.89903000       0.21403000      -0.00922000
    48  S          0.10097000       0.78597000       0.00922000
    49  N          0.85710000       0.12649000       0.85534000
    50  N          0.14290000       0.87351000       0.14466000
    51  H          0.88830000       0.10600000       0.80600000
    52  H          0.11170000       0.89400000       0.19400000
    53  H          0.76570000       0.11970000       0.87840000
    54  H          0.23430000       0.88030000       0.12160000
    55  N          0.08610000       0.17610000       0.85982000
    56  N          0.91390000       0.82390000       0.14018000
    57  H          0.11570000       0.15600000       0.81040000
    58  H          0.88430000       0.84400000       0.18960000
    59  H          0.14810000       0.20370000       0.88580000
    60  H          0.85190000       0.79630000       0.11420000
    61  C          0.94810000       0.16739000       0.89523000
    62  C          0.05190000       0.83261000       0.10477000
    63  I          0.20841800       0.47563600       0.90409500
    64  I          0.79158200       0.52436400       0.09590500
    65  I          0.13437700       0.74422600       0.78084400
    66  I          0.86562300       0.25577400       0.21915600
    67  I          0.06133800       0.01723600       0.66434500
    68  I          0.93866200       0.98276400       0.33565500
