data_LOQBAU
_symmetry_space_group_name_H-M    'P1'
_symmetry_Int_Tables_number       1
loop_
_symmetry_equiv_pos_site_id
_symmetry_equiv_pos_as_xyz
1 x,y,z
_cell_length_a                   5.4641
_cell_length_b                   7.2921
_cell_length_c                   16.1423
_cell_angle_alpha                99.9002
_cell_angle_beta                 95.1602
_cell_angle_gamma                106.8902
loop_
_atom_site_label
_atom_site_type_symbol
_atom_site_fract_x
_atom_site_fract_y
_atom_site_fract_z
     1  I         -0.00829000      -0.00551000       0.20941000
     2  I          0.00829000       0.00551000       0.79059000
     3  C          0.18003000       0.85398000       0.29109000
     4  C          0.81997000       0.14602000       0.70891000
     5  C          0.00431900       0.76258500       0.35356000
     6  C         -0.00431900       0.23741500       0.64644000
     7  C          0.12711900       0.66228100       0.41507000
     8  C          0.87288100       0.33771900       0.58493000
     9  C          0.93651900       0.54268400       0.46566000
    10  C          0.06348100       0.45731600       0.53434000
    11  F          0.22803000       0.70198100       0.24097000
    12  F          0.77197000       0.29801900       0.75903000
    13  F          0.39151700       0.97498000       0.33359000
    14  F          0.60848300       0.02502000       0.66641000
    15  F          0.94521900       0.91098900       0.40075000
    16  F          0.05478100       0.08901100       0.59925000
    17  F          0.78411300       0.64008700       0.30974000
    18  F          0.21588700       0.35991300       0.69026000
    19  F          0.22503000       0.53868200       0.36897000
    20  F          0.77497000       0.46131800       0.63103000
    21  F          0.31381900       0.79598000       0.46708000
    22  F          0.68618100       0.20402000       0.53292000
    23  F          0.76702000       0.39268500       0.41157000
    24  F          0.23298000       0.60731500       0.58843000
    25  F          0.80331900       0.64828400       0.50066000
    26  F          0.19668100       0.35171600       0.49934000
    27  C          0.55911900       0.43461300       0.02115000
    28  C          0.44088100       0.56538700       0.97885000
    29  C          0.64603000       0.30302000       0.14209000
    30  C          0.35397000       0.69698000       0.85791000
    31  C          0.53403000       0.42091700       0.10527000
    32  C          0.46597000       0.57908300       0.89473000
    33  C          0.68904000       0.32603000       0.97921000
    34  C          0.31096000       0.67397000       0.02079000
    35  C          0.79404000       0.20303000       0.02029000
    36  C          0.20596000       0.79697000       0.97971000
    37  N          0.77303000       0.19491600       0.10219000
    38  N          0.22697000       0.80508400       0.89781000
    39  H          0.63210000       0.29960000       0.19870000
    40  H          0.36790000       0.70040000       0.80130000
    41  H          0.44150000       0.49070000       0.13590000
    42  H          0.55850000       0.50930000       0.86410000
    43  H          0.70940000       0.33110000       0.92310000
    44  H          0.29060000       0.66890000       0.07690000
    45  H          0.87990000       0.12650000       0.99000000
    46  H          0.12010000       0.87350000       0.01000000
