data_LOWLES
_symmetry_space_group_name_H-M    'P1'
_symmetry_Int_Tables_number       1
loop_
_symmetry_equiv_pos_site_id
_symmetry_equiv_pos_as_xyz
1 x,y,z
_cell_length_a                   9.021511
_cell_length_b                   5.97526
_cell_length_c                   16.6332
_cell_angle_alpha                90.0
_cell_angle_beta                 102.76412
_cell_angle_gamma                90.0
loop_
_atom_site_label
_atom_site_type_symbol
_atom_site_fract_x
_atom_site_fract_y
_atom_site_fract_z
     1  I          0.41673500       0.62282800       0.62951300
     2  I          0.58326500       0.12282800       0.37048700
     3  I          0.92471600       0.97391300       0.91324300
     4  I          0.07528400       0.47391300       0.08675700
     5  F          0.78535000       0.91464000       0.71913000
     6  F          0.21465000       0.41464000       0.28087000
     7  F          0.75445000       0.42988000       0.93032000
     8  F          0.24555000       0.92988000       0.06968000
     9  F          0.58985000       0.16227000       0.61142000
    10  F          0.41015000       0.66227000       0.38858000
    11  F          0.56015000       0.67787000       0.82333000
    12  F          0.43985000       0.17787000       0.17667000
    13  C          0.71657000       0.36191100       0.85094000
    14  C          0.28343000       0.86191100       0.14906000
    15  C          0.77647000       0.16561000       0.82764000
    16  C          0.22353000       0.66561000       0.17236000
    17  C          0.57027000       0.42801000       0.71434000
    18  C          0.42973000       0.92801000       0.28566000
    19  C          0.61487000       0.49111100       0.79554000
    20  C          0.38513000      -0.00888900       0.20446000
    21  C          0.73157000       0.10341200       0.74544000
    22  C          0.26843000       0.60341200       0.25456000
    23  C          0.62787000       0.23261100       0.68994000
    24  C          0.37213000       0.73261100       0.31006000
    25  O          0.12296000       0.08069000       0.39373000
    26  O          0.87704000       0.58069000       0.60627000
    27  C          0.93452000       0.83951200       0.30464000
    28  C          0.06548000       0.33951200       0.69536000
    29  C          0.04448000       0.87841100       0.38264000
    30  C          0.95552000       0.37841100       0.61736000
    31  N          0.20537000       0.88131300       0.50684000
    32  N          0.79463000       0.38131300       0.49316000
    33  C          0.84762000       0.64981400       0.29395000
    34  C          0.15238000       0.14981400       0.70605000
    35  H          0.85788900       0.54594900       0.33637500
    36  H          0.14211100       0.04594900       0.66362500
    37  C          0.91581000      -0.00328500       0.24115000
    38  C          0.08419000       0.49671500       0.75885000
    39  H          0.97271100       0.12793500       0.24794800
    40  H          0.02728900       0.62793500       0.75205200
    41  C          0.81191000       0.95571800       0.16765000
    42  C          0.18809000       0.45571800       0.83235000
    43  H          0.80006600       0.06033300       0.12526400
    44  H          0.19993400       0.56033300       0.87473600
    45  C          0.09588000       0.75981400       0.45204000
    46  C          0.90412000       0.25981400       0.54796000
    47  H          0.06271500       0.61707600       0.46192800
    48  H          0.93728500       0.11707600       0.53807200
    49  C          0.21481000       0.06451500       0.46925000
    50  C          0.78519000       0.56451500       0.53075000
    51  H          0.28033900       0.17900400       0.49228800
    52  H          0.71966100       0.67900400       0.50771200
    53  C          0.74471000       0.61131700       0.22045000
    54  C          0.25529000       0.11131700       0.77955000
    55  H          0.68706100       0.48090700       0.21385000
    56  H          0.31293900      -0.01909300       0.78615000
    57  C          0.72631000       0.76371600       0.15635000
    58  C          0.27369000       0.26371600       0.84365000
    59  C          0.61518900       0.71320000       0.07475000
    60  C          0.38481100       0.21320000       0.92525000
    61  H          0.56578300       0.84889200       0.05238200
    62  H          0.43421700       0.34889200       0.94761800
    63  H          0.54040500       0.60776100       0.08397300
    64  H          0.45959500       0.10776100       0.91602700
    65  H          0.66960500       0.65086600       0.03642800
    66  H          0.33039500       0.15086600       0.96357200
