data_LOWMET
_symmetry_space_group_name_H-M    'P1'
_symmetry_Int_Tables_number       1
loop_
_symmetry_equiv_pos_site_id
_symmetry_equiv_pos_as_xyz
1 x,y,z
_cell_length_a                   7.30995
_cell_length_b                   12.953711
_cell_length_c                   26.134115
_cell_angle_alpha                90.0
_cell_angle_beta                 90.8426
_cell_angle_gamma                90.0
loop_
_atom_site_label
_atom_site_type_symbol
_atom_site_fract_x
_atom_site_fract_y
_atom_site_fract_z
     1  I          0.64261150       0.12466900       0.60326400
     2  I          0.85738850       0.62466900       0.89673600
     3  I          0.35738850       0.87533100       0.39673600
     4  I          0.14261150       0.37533100       0.10326400
     5  I          0.60909180       0.86761890       0.54246400
     6  I          0.89090820       0.36761890       0.95753600
     7  I          0.39090820       0.13238110       0.45753600
     8  I          0.10909180       0.63238110       0.04246400
     9  F          0.64481600       0.07811000       0.72004000
    10  F          0.85518400       0.57811000       0.77996000
    11  F          0.35518400       0.92189000       0.27996000
    12  F          0.14481600       0.42189000       0.22004000
    13  F          0.63311500       0.91338900       0.77754000
    14  F          0.86688500       0.41338900       0.72246000
    15  F          0.36688500       0.08661100       0.22246000
    16  F          0.13311500       0.58661100       0.27754000
    17  F          0.59941600       0.70901000       0.63145000
    18  F          0.90058400       0.20901000       0.86855000
    19  F          0.40058400       0.29099000       0.36855000
    20  F          0.09941600       0.79099000       0.13145000
    21  F          0.61031700       0.72598900       0.73315000
    22  F          0.88968300       0.22598900       0.76685000
    23  F          0.38968300       0.27401100       0.26685000
    24  F          0.11031700       0.77401100       0.23315000
    25  C          0.63111900       0.98558700       0.64436000
    26  C          0.86888100       0.48558700       0.85564000
    27  C          0.36888100       0.01441300       0.35564000
    28  C          0.13111900       0.51441300       0.14436000
    29  C          0.61631900       0.88818700       0.62155000
    30  C          0.88368100       0.38818700       0.87845000
    31  C          0.38368100       0.11181300       0.37845000
    32  C          0.11631900       0.61181300       0.12155000
    33  C          0.63420000       0.98818500       0.69646000
    34  C          0.86580000       0.48818500       0.80354000
    35  C          0.36580000       0.01181500       0.30354000
    36  C          0.13420000       0.51181500       0.19646000
    37  C          0.61420000       0.80980000       0.70528000
    38  C          0.88580000       0.30980000       0.79472000
    39  C          0.38580000       0.19020000       0.29472000
    40  C          0.11420000       0.69020000       0.20528000
    41  C          0.63120000       0.90680000       0.72697000
    42  C          0.86880000       0.40680000       0.77303000
    43  C          0.36880000       0.09320000       0.27303000
    44  C          0.13120000       0.59320000       0.22697000
    45  C          0.61320000       0.80448500       0.65177000
    46  C          0.88680000       0.30448500       0.84823000
    47  C          0.38680000       0.19551500       0.34823000
    48  C          0.11320000       0.69551500       0.15177000
    49  I          0.64420150       0.54989100       0.26106400
    50  I          0.85579850       0.04989100       0.23893600
    51  I          0.35579850       0.45010900       0.73893600
    52  I          0.14420150       0.95010900       0.76106400
    53  I          0.61270180       0.79489900       0.19345400
    54  I          0.88729820       0.29489900       0.30654600
    55  I          0.38729820       0.20510100       0.80654600
    56  I          0.11270180       0.70510100       0.69345400
    57  F          0.64961500       0.37857000       0.17504000
    58  F          0.85038500       0.87857000       0.32496000
    59  F          0.35038500       0.62143000       0.82496000
    60  F          0.14961500       0.12143000       0.67504000
    61  F          0.60141500       0.74578000       0.07744000
    62  F          0.89858500       0.24578000       0.42256000
    63  F          0.39858500       0.25422000       0.92256000
    64  F          0.10141500       0.75422000       0.57744000
    65  F          0.61771400       0.57099000       0.02393000
    66  F          0.88228600       0.07099000       0.47607000
    67  F          0.38228600       0.42901000       0.97607000
    68  F          0.11771400       0.92901000       0.52393000
    69  F          0.64051500       0.38578000       0.07274000
    70  F          0.85948500       0.88578000       0.42726000
    71  F          0.35948500       0.61422000       0.92726000
    72  F          0.14051500       0.11422000       0.57274000
    73  C          0.62520000       0.56081200       0.18166000
    74  C          0.87480000       0.06081200       0.31834000
    75  C          0.37480000       0.43918800       0.81834000
    76  C          0.12520000       0.93918800       0.68166000
    77  C          0.61551800       0.65621100       0.15535000
    78  C          0.88448200       0.15621100       0.34465000
    79  C          0.38448200       0.34378900       0.84465000
    80  C          0.11551800       0.84378900       0.65535000
    81  C          0.62020000       0.56691400       0.07476000
    82  C          0.87980000       0.06691400       0.42524000
    83  C          0.37980000       0.43308600       0.92524000
    84  C          0.12020000       0.93308600       0.57476000
    85  C          0.62920000       0.47481400       0.09867000
    86  C          0.87080000       0.97481400       0.40133000
    87  C          0.37080000       0.52518600       0.90133000
    88  C          0.12920000       0.02518600       0.59867000
    89  C          0.61120000       0.65611300       0.10266000
    90  C          0.88880000       0.15611300       0.39734000
    91  C          0.38880000       0.34388700       0.89734000
    92  C          0.11120000       0.84388700       0.60266000
    93  C          0.63820000       0.47651300       0.15257000
    94  C          0.86180000       0.97651300       0.34743000
    95  C          0.36180000       0.52348700       0.84743000
    96  C          0.13820000       0.02348700       0.65257000
    97  O          0.78861600       0.62259000       0.44845000
    98  O          0.71138400       0.12259000       0.05155000
    99  O          0.21138400       0.37741000       0.55155000
   100  O          0.28861600       0.87741000       0.94845000
   101  N          0.70920000       0.55751300       0.37365000
   102  N          0.79080000       0.05751300       0.12635000
   103  N          0.29080000       0.44248700       0.62635000
   104  N          0.20920000       0.94248700       0.87365000
   105  N          0.69420000       0.33461300       0.56235000
   106  N          0.80580000       0.83461300       0.93765000
   107  N          0.30580000       0.66538700       0.43765000
   108  N          0.19420000       0.16538700       0.06235000
   109  C          0.74420000       0.47861300       0.50716000
   110  C          0.75580000       0.97861300       0.99284000
   111  C          0.25580000       0.52138700       0.49284000
   112  C          0.24420000       0.02138700       0.00716000
   113  C          0.73451900       0.52341200       0.45596000
   114  C          0.76548100       0.02341200       0.04404000
   115  C          0.26548100       0.47658800       0.54404000
   116  C          0.23451900       0.97658800       0.95596000
   117  C          0.69420000       0.37891300       0.51716000
   118  C          0.80580000       0.87891300       0.98284000
   119  C          0.30580000       0.62108700       0.48284000
   120  C          0.19420000       0.12108700       0.01716000
   121  H          0.65588500       0.33878300       0.48940300
   122  H          0.84411500       0.83878300       0.01059700
   123  H          0.34411500       0.66121700       0.51059700
   124  H          0.15588500       0.16121700       0.98940300
   125  C          0.80320000       0.53801400       0.54936000
   126  C          0.69680000       0.03801400       0.95064000
   127  C          0.19680000       0.46198600       0.45064000
   128  C          0.30320000       0.96198600       0.04936000
   129  H          0.84233400       0.60558600       0.54459800
   130  H          0.65766600       0.10558600       0.95540200
   131  H          0.15766600       0.39441400       0.45540200
   132  H          0.34233400       0.89441400       0.04459800
   133  C          0.68720000       0.48441600       0.41076000
   134  C          0.81280000       0.98441600       0.08924000
   135  C          0.31280000       0.51558400       0.58924000
   136  C          0.18720000       0.01558400       0.91076000
   137  H          0.64452000       0.41757000       0.40514400
   138  H          0.85548000       0.91757000       0.09485600
   139  H          0.35548000       0.58243000       0.59485600
   140  H          0.14452000       0.08243000       0.90514400
   141  C          0.75230000       0.39381700       0.60117000
   142  C          0.74770000       0.89381700       0.89883000
   143  C          0.24770000       0.60618300       0.39883000
   144  C          0.25230000       0.10618300       0.10117000
   145  H          0.75958800       0.36459300       0.63352200
   146  H          0.74041200       0.86459300       0.86647800
   147  H          0.24041200       0.63540700       0.36647800
   148  H          0.25958800       0.13540700       0.13352200
   149  C          0.76530000       0.63721600       0.39747000
   150  C          0.73470000       0.13721600       0.10253000
   151  C          0.23470000       0.36278400       0.60253000
   152  C          0.26530000       0.86278400       0.89747000
   153  H          0.78781200       0.69981500       0.38128800
   154  H          0.71218800       0.19981500       0.11871200
   155  H          0.21218800       0.30018500       0.61871200
   156  H          0.28781200       0.80018500       0.88128800
   157  C          0.80230000       0.49681600       0.59567000
   158  C          0.69770000      -0.00318400       0.90433000
   159  C          0.19770000       0.50318400       0.40433000
   160  C          0.30230000       0.00318400       0.09567000
   161  H          0.83499700       0.53612000       0.62411400
   162  H          0.66500300       0.03612000       0.87588600
   163  H          0.16500300       0.46388000       0.37588600
   164  H          0.33499700       0.96388000       0.12411400
