data_LOWNUJ
_symmetry_space_group_name_H-M    'P1'
_symmetry_Int_Tables_number       1
loop_
_symmetry_equiv_pos_site_id
_symmetry_equiv_pos_as_xyz
1 x,y,z
_cell_length_a                   9.09692
_cell_length_b                   10.18012
_cell_length_c                   11.37593
_cell_angle_alpha                94.2572
_cell_angle_beta                 110.9742
_cell_angle_gamma                98.3862
loop_
_atom_site_label
_atom_site_type_symbol
_atom_site_fract_x
_atom_site_fract_y
_atom_site_fract_z
     1  S          0.90169400       0.24918300       0.44060300
     2  S          0.09830600       0.75081700       0.55939700
     3  Cl         0.91164600       0.94859600       0.21658500
     4  Cl         0.08835400       0.05140400       0.78341500
     5  N          0.92427120       0.43011120       0.63514110
     6  N          0.07572880       0.56988880       0.36485890
     7  H          0.88120000       0.47420000       0.68021900
     8  H          0.11880000       0.52580000       0.31978100
     9  H          0.03520000       0.44991900       0.64941800
    10  H          0.96480000       0.55008100       0.35058200
    11  C          0.82791130       0.33368120       0.54038110
    12  C          0.17208870       0.66631880       0.45961890
    13  N          0.67307110       0.29695100       0.51311900
    14  N          0.32692890       0.70304900       0.48688100
    15  C          0.60631130       0.19841120       0.40729110
    16  C          0.39368870       0.80158880       0.59270890
    17  C          0.71001150       0.16109130       0.35580120
    18  C          0.28998850       0.83890870       0.64419880
    19  H          0.68125100       0.09578600       0.28339900
    20  H          0.31874900       0.90421400       0.71660100
    21  C          0.43493140       0.14010120       0.36127120
    22  C          0.56506860       0.85989880       0.63872880
    23  C          0.34524150       0.10956130       0.23051130
    24  C          0.65475850       0.89043870       0.76948870
    25  H          0.39534900       0.12863700       0.17182300
    26  H          0.60465100       0.87136300       0.82817700
    27  C          0.18411160       0.05179140       0.18585150
    28  C          0.81588840       0.94820860       0.81414850
    29  H          0.12336400       0.03192600       0.09713800
    30  H          0.87663600       0.96807400       0.90286200
    31  C          0.11324150       0.02352140       0.27261160
    32  C          0.88675850       0.97647860       0.72738840
    33  C          0.19893160       0.05155140       0.40299160
    34  C          0.80106840       0.94844860       0.59700840
    35  H          0.14829800       0.03080100       0.46102400
    36  H          0.85170200       0.96919900       0.53897600
    37  C          0.36022150       0.11055130       0.44692130
    38  C          0.63977850       0.88944870       0.55307870
    39  H          0.42010000       0.13093100       0.53573100
    40  H          0.57990000       0.86906900       0.46426900
    41  S          0.51792300       0.55801300       0.86399300
    42  S          0.48207700       0.44198700       0.13600700
    43  Cl         0.52183400       0.82837400       0.13729400
    44  Cl         0.47816600       0.17162600       0.86270600
    45  O          0.25590110       0.44560110       0.65275100
    46  O          0.74409890       0.55439890       0.34724900
    47  N          0.49506120       0.44324110       0.63093100
    48  N          0.50493880       0.55675890       0.36906900
    49  H          0.54220000       0.40420000       0.58801900
    50  H          0.45780000       0.59580000       0.41198100
    51  C          0.59076130       0.51797120       0.74725110
    52  C          0.40923870       0.48202880       0.25274890
    53  N          0.74464110       0.55656100       0.77803900
    54  N          0.25535890       0.44343900       0.22196100
    55  C          0.81452130       0.62009110       0.90251110
    56  C          0.18547870       0.37990890       0.09748890
    57  C          0.70997140       0.62897130       0.96263120
    58  C          0.29002860       0.37102870       0.03736880
    59  H          0.73966000       0.66915900       0.04789200
    60  H          0.26034000       0.33084100       0.95210800
    61  C         -0.01193860       0.67148110       0.95874110
    62  C          0.01193860       0.32851890       0.04125890
    63  C          0.06781150       0.69375120       0.09082110
    64  C          0.93218850       0.30624880       0.90917890
    65  H          0.00887800       0.67499800       0.14363600
    66  H         -0.00887800       0.32500200       0.85636400
    67  C          0.23131150       0.74271130       0.14613120
    68  C          0.76868850       0.25728870       0.85386880
    69  H          0.28417000       0.75848400       0.23595600
    70  H          0.71583000       0.24151600       0.76404400
    71  C          0.31597140       0.76813130       0.06817130
    72  C          0.68402860       0.23186870       0.93182870
    73  C          0.24066150       0.74726140       0.93654130
    74  C          0.75933850       0.25273860       0.06345870
    75  H          0.30066200       0.76534300       0.88438200
    76  H          0.69933800       0.23465700       0.11561800
    77  C          0.07650140       0.69962130       0.88224120
    78  C          0.92349860       0.30037870       0.11775880
    79  H          0.02384700       0.68603600       0.79238500
    80  H         -0.02384700       0.31396400       0.20761500
    81  C          0.33314140       0.41150140       0.59069130
    82  C          0.66685860       0.58849860       0.40930870
    83  H          0.27623700       0.35977400       0.50961800
    84  H          0.72376300       0.64022600       0.49038200
