data_LOWNEU
_symmetry_space_group_name_H-M    'P1'
_symmetry_Int_Tables_number       1
loop_
_symmetry_equiv_pos_site_id
_symmetry_equiv_pos_as_xyz
1 x,y,z
_cell_length_a                   9.19934
_cell_length_b                   9.76314
_cell_length_c                   10.59543
_cell_angle_alpha                84.5633
_cell_angle_beta                 85.9793
_cell_angle_gamma                65.0914
loop_
_atom_site_label
_atom_site_type_symbol
_atom_site_fract_x
_atom_site_fract_y
_atom_site_fract_z
     1  I          0.46428300       0.60164300       0.67215200
     2  I          0.53571700       0.39835700       0.32784800
     3  I          0.45391400       0.00692300       0.20009300
     4  I          0.54608600      -0.00692300       0.79990700
     5  I          0.03111400       0.74968500       0.52887300
     6  I          0.96888600       0.25031500       0.47112700
     7  F          0.80343000       0.61363000       0.67062000
     8  F          0.19657000       0.38637000       0.32938000
     9  F          0.78823000       0.93773000       0.31213000
    10  F          0.21177000       0.06227000       0.68787000
    11  F          0.35303000       0.81533000       0.41773000
    12  F          0.64697000       0.18467000       0.58227000
    13  C          0.56995000       0.87734000       0.36003000
    14  C          0.43005000       0.12266000       0.63997000
    15  C          0.57405000       0.71214000       0.54713000
    16  C          0.42595000       0.28786000       0.45287000
    17  C          0.72675000       0.69965000       0.56884000
    18  C          0.27325000       0.30035000       0.43116000
    19  C          0.80255000       0.77305000       0.49164000
    20  C          0.19745000       0.22695000       0.50836000
    21  C          0.71875000       0.86325000       0.38794000
    22  C          0.28125000       0.13675000       0.61206000
    23  C          0.49975000       0.80164000       0.44183000
    24  C          0.50025000       0.19836000       0.55817000
    25  O          0.24984000       0.32644000       0.01593000
    26  O          0.75016000       0.67356000       0.98407000
    27  N          0.31025000       0.44375000       0.84594000
    28  N          0.68975000       0.55625000       0.15406000
    29  C          0.14255000       0.34334000       0.92533000
    30  C          0.85745000       0.65666000       0.07467000
    31  C          0.17936000       0.41555000       0.82184000
    32  C          0.82064000       0.58445000       0.17816000
    33  H          0.12542500       0.44222100       0.74602300
    34  H          0.87457500       0.55777900       0.25397700
    35  C          0.02225000       0.28474000       0.95734000
    36  C          0.97775000       0.71526000       0.04266000
    37  C          0.01155000       0.21915000       0.07724000
    38  C          0.98845000       0.78085000       0.92276000
    39  H          0.08113700       0.21299500       0.13913100
    40  H          0.91886300       0.78700500       0.86086900
    41  C          0.91524000       0.29356000       0.86615000
    42  C          0.08476000       0.70644000       0.13385000
    43  H          0.92052800       0.33819000       0.78544900
    44  H          0.07947200       0.66181000       0.21455100
    45  C          0.34666000       0.38856000       0.95945000
    46  C          0.65334000       0.61144000       0.04055000
    47  H          0.43213500       0.39067700      -0.00037100
    48  H          0.56786500       0.60932300       0.00037100
    49  C          0.89624000       0.16236000       0.10505000
    50  C          0.10376000       0.83764000       0.89495000
    51  H          0.88854600       0.11945700       0.18593900
    52  H          0.11145400       0.88054300       0.81406100
    53  C          0.80213000       0.23616000       0.89516000
    54  C          0.19787000       0.76384000       0.10484000
    55  H          0.73107700       0.24277300       0.83417500
    56  H          0.26892300       0.75722700       0.16582500
    57  C          0.79463000       0.16896000       0.01456000
    58  C          0.20537000       0.83104000       0.98544000
    59  H          0.72025600       0.12799300       0.03326100
    60  H          0.27974400       0.87200700       0.96673900
