data_LOWNIY
_symmetry_space_group_name_H-M    'P1'
_symmetry_Int_Tables_number       1
loop_
_symmetry_equiv_pos_site_id
_symmetry_equiv_pos_as_xyz
1 x,y,z
_cell_length_a                   4.94432
_cell_length_b                   17.62646
_cell_length_c                   21.80909
_cell_angle_alpha                90.0
_cell_angle_beta                 96.0924
_cell_angle_gamma                90.0
loop_
_atom_site_label
_atom_site_type_symbol
_atom_site_fract_x
_atom_site_fract_y
_atom_site_fract_z
     1  I          0.88328700       0.25642500       0.51777300
     2  I          0.88328700       0.74357500       0.01777300
     3  I          0.38328700       0.75642500       0.51777300
     4  I          0.38328700       0.24357500       0.01777300
     5  I          0.81087800       0.25732500       0.71827300
     6  I          0.81087800       0.74267500       0.21827300
     7  I          0.31087800       0.75732500       0.71827300
     8  I          0.31087800       0.24267500       0.21827300
     9  I          0.36186000       0.95880700       0.61614150
    10  I          0.36186000       0.04119300       0.11614150
    11  I          0.86186000       0.45880700       0.61614150
    12  I          0.86186000       0.54119300       0.11614150
    13  F          0.34820000       0.30832000       0.61716000
    14  F          0.34820000       0.69168000       0.11716000
    15  F          0.84820000       0.80832000       0.61716000
    16  F          0.84820000       0.19168000       0.11716000
    17  F          0.71741900       0.07906000       0.69565000
    18  F          0.71741900       0.92094000       0.19565000
    19  F          0.21741900       0.57906000       0.69565000
    20  F          0.21741900       0.42094000       0.19565000
    21  C          0.53620000       0.19656000       0.65966000
    22  C          0.53620000       0.80344000       0.15966000
    23  C          0.03620000       0.69656000       0.65966000
    24  C          0.03620000       0.30344000       0.15966000
    25  F         -0.00780000       0.07975000       0.53975000
    26  F         -0.00780000       0.92025000       0.03975000
    27  F          0.49220000       0.57975000       0.53975000
    28  F          0.49220000       0.42025000       0.03975000
    29  C          0.16330000       0.11849000       0.57798000
    30  C          0.16330000       0.88151000       0.07798000
    31  C          0.66330000       0.61849000       0.57798000
    32  C          0.66330000       0.38151000       0.07798000
    33  C          0.34140000       0.23254000       0.61521000
    34  C          0.34140000       0.76746000       0.11521000
    35  C          0.84140000       0.73254000       0.61521000
    36  C          0.84140000       0.26746000       0.11521000
    37  C          0.35640000       0.07654000       0.61761000
    38  C          0.35640000       0.92346000       0.11761000
    39  C          0.85640000       0.57654000       0.61761000
    40  C          0.85640000       0.42346000       0.11761000
    41  C          0.53030000       0.11648000       0.65677000
    42  C          0.53030000       0.88352000       0.15677000
    43  C          0.03030000       0.61648000       0.65677000
    44  C          0.03030000       0.38352000       0.15677000
    45  C          0.16130000       0.19418000       0.57747000
    46  C          0.16130000       0.80582000       0.07747000
    47  C          0.66130000       0.69418000       0.57747000
    48  C          0.66130000       0.30582000       0.07747000
    49  C          0.79670000       0.47168000       0.32618000
    50  C          0.79670000       0.52832000       0.82618000
    51  C          0.29670000       0.97168000       0.32618000
    52  C          0.29670000       0.02832000       0.82618000
    53  H          0.82194200       0.42950800       0.30166500
    54  H          0.82194200       0.57049200       0.80166500
    55  H          0.32194200       0.92950800       0.30166500
    56  H          0.32194200       0.07049200       0.80166500
    57  C          0.39840000       0.32331100       0.38771000
    58  C          0.39840000       0.67668900       0.88771000
    59  C          0.89840000       0.82331100       0.38771000
    60  C          0.89840000       0.17668900       0.88771000
    61  H          0.46332400       0.27925200       0.37089900
    62  H          0.46332400       0.72074800       0.87089900
    63  H          0.96332400       0.77925200       0.37089900
    64  H          0.96332400       0.22074800       0.87089900
    65  C          0.56170000       0.58511000       0.34159000
    66  C          0.56170000       0.41489000       0.84159000
    67  C          0.06170000       0.08511000       0.34159000
    68  C          0.06170000       0.91489000       0.84159000
    69  C          0.15620000       0.42248000       0.39826000
    70  C          0.15620000       0.57752000       0.89826000
    71  C          0.65620000       0.92248000       0.39826000
    72  C          0.65620000       0.07752000       0.89826000
    73  N          0.49630000       0.35111000       0.44137000
    74  N          0.49630000       0.64889000       0.94137000
    75  N         -0.00370000       0.85111000       0.44137000
    76  N         -0.00370000       0.14889000       0.94137000
    77  O          0.20070000       0.63211000       0.27998000
    78  O          0.20070000       0.36789000       0.77998000
    79  O          0.70070000       0.13211000       0.27998000
    80  O          0.70070000       0.86789000       0.77998000
    81  O          0.19401800       0.36525000       0.35964000
    82  O          0.19401800       0.63475000       0.85964000
    83  O          0.69401800       0.86525000       0.35964000
    84  O          0.69401800       0.13475000       0.85964000
    85  C          0.95378200       0.48045000       0.38015000
    86  C          0.95378200       0.51955000       0.88015000
    87  C          0.45378200       0.98045000       0.38015000
    88  C          0.45378200       0.01955000       0.88015000
    89  C          0.59280000       0.52566000       0.30616000
    90  C          0.59280000       0.47434000       0.80616000
    91  C          0.09280000       0.02566000       0.30616000
    92  C          0.09280000       0.97434000       0.80616000
    93  H          0.48512100       0.51931400       0.26889600
    94  H          0.48512100       0.48068600       0.76889600
    95  H         -0.01487900       0.01931400       0.26889600
    96  H         -0.01487900       0.98068600       0.76889600
    97  C          0.92770000       0.54338000       0.41627000
    98  C          0.92770000       0.45662000       0.91627000
    99  C          0.42770000       0.04338000       0.41627000
   100  C          0.42770000       0.95662000       0.91627000
   101  H          0.04268500       0.54987700       0.45249600
   102  H          0.04268500       0.45012300       0.95249600
   103  H          0.54268500       0.04987700       0.45249600
   104  H          0.54268500       0.95012300       0.95249600
   105  C          0.72880000       0.59766000       0.39795000
   106  C          0.72880000       0.40234000       0.89795000
   107  C          0.22880000       0.09766000       0.39795000
   108  C          0.22880000       0.90234000       0.89795000
   109  H          0.70666400       0.64039400       0.42173100
   110  H          0.70666400       0.35960600       0.92173100
   111  H          0.20666400       0.14039400       0.42173100
   112  H          0.20666400       0.85960600       0.92173100
   113  N          0.35180000       0.64226000       0.32336000
   114  N          0.35180000       0.35774000       0.82336000
   115  N          0.85180000       0.14226000       0.32336000
   116  N          0.85180000       0.85774000       0.82336000
   117  C          0.34720000       0.41327000       0.44915000
   118  C          0.34720000       0.58673000       0.94915000
   119  C          0.84720000       0.91327000       0.44915000
   120  C          0.84720000       0.08673000       0.94915000
   121  H          0.36737100       0.44501200       0.48324600
   122  H          0.36737100       0.55498800       0.98324600
   123  H          0.86737100       0.94501200       0.48324600
   124  H          0.86737100       0.05498800       0.98324600
   125  O          0.34970000       0.69948000       0.35178000
   126  O          0.34970000       0.30052000       0.85178000
   127  O          0.84970000       0.19948000       0.35178000
   128  O          0.84970000       0.80052000       0.85178000
