data_LOWNAQ
_symmetry_space_group_name_H-M    'P1'
_symmetry_Int_Tables_number       1
loop_
_symmetry_equiv_pos_site_id
_symmetry_equiv_pos_as_xyz
1 x,y,z
_cell_length_a                   8.15465
_cell_length_b                   5.98663
_cell_length_c                   16.61607
_cell_angle_alpha                90.0
_cell_angle_beta                 97.0115
_cell_angle_gamma                90.0
loop_
_atom_site_label
_atom_site_type_symbol
_atom_site_fract_x
_atom_site_fract_y
_atom_site_fract_z
     1  I          0.27037600       0.63335600       0.40232300
     2  I          0.72962400       0.13335600       0.59767700
     3  I          0.49504600      -0.00847900       0.08383300
     4  I          0.50495400       0.49152100       0.91616700
     5  F          0.30666000       0.45288000       0.08822000
     6  F          0.69334000       0.95288000       0.91178000
     7  F          0.22216000       0.70087000       0.21023000
     8  F          0.77784000       0.20087000       0.78977000
     9  F          0.55876000       0.92903000       0.27603000
    10  F          0.44124000       0.42903000       0.72397000
    11  F          0.47166000       0.17458000       0.39792000
    12  F          0.52834000       0.67458000       0.60208000
    13  C          0.30378000       0.51181100       0.22814000
    14  C          0.69622000       0.01181100       0.77186000
    15  C          0.34368000       0.44431000       0.30794000
    16  C          0.65632000       0.94431000       0.69206000
    17  C          0.35018000       0.38321200       0.16504000
    18  C          0.64982000       0.88321200       0.83496000
    19  C          0.43508000       0.18511000       0.17914000
    20  C          0.56492000       0.68511000       0.82086000
    21  C          0.47518000       0.11921300       0.25914000
    22  C          0.52482000       0.61921300       0.74086000
    23  C          0.42908000       0.24551200       0.32164000
    24  C          0.57092000       0.74551200       0.67836000
    25  O          0.20318000       0.06901000       0.65124000
    26  O          0.79682000       0.56901000       0.34876000
    27  C          0.11819000       0.83561200       0.75714000
    28  C          0.88181000       0.33561200       0.24286000
    29  C          0.14351100       0.96461800       0.89515000
    30  C          0.85648900       0.46461800       0.10485000
    31  H          0.17441400       0.07498100       0.93332900
    32  H          0.82558600       0.57498100       0.06667100
    33  C          0.16789000      -0.00208500       0.81524000
    34  C          0.83211000       0.49791500       0.18476000
    35  H          0.21753100       0.12866600       0.80013400
    36  H          0.78246900       0.62866600       0.19986600
    37  C          0.04529000       0.64261600       0.78125000
    38  C          0.95471000       0.14261600       0.21875000
    39  H          0.01092700       0.53347600       0.74293600
    40  H         -0.01092700       0.03347600       0.25706400
    41  N          0.15751100       0.87021600       0.53894000
    42  N          0.84248900       0.37021600       0.46106000
    43  C          0.14138000       0.86961300       0.67224000
    44  C          0.85862000       0.36961300       0.32776000
    45  C          0.20811300       0.05471900       0.56976000
    46  C          0.79188700       0.55471900       0.43024000
    47  H          0.24541100       0.17045900       0.53938000
    48  H          0.75458900       0.67045900       0.46062000
    49  C          0.02241000       0.60941900       0.86146000
    50  C          0.97759000       0.10941900       0.13854000
    51  H          0.97247000       0.47929800       0.87697500
    52  H          0.02753000      -0.02070200       0.12302500
    53  C          0.11341100       0.74851500       0.60325000
    54  C          0.88658900       0.24851500       0.39675000
    55  H          0.07077600       0.60427300       0.59965500
    56  H          0.92922400       0.10427300       0.40034500
    57  C          0.07441200       0.77120000       0.91846000
    58  C          0.92558800       0.27120000       0.08154000
    59  H          0.06217900       0.74793400       0.97272900
    60  H          0.93782100       0.24793400       0.02727100
