data_LOWPUM
_symmetry_space_group_name_H-M    'P1'
_symmetry_Int_Tables_number       1
loop_
_symmetry_equiv_pos_site_id
_symmetry_equiv_pos_as_xyz
1 x,y,z
_cell_length_a                   14.13224
_cell_length_b                   5.53192
_cell_length_c                   18.64105
_cell_angle_alpha                90.0
_cell_angle_beta                 95.5063
_cell_angle_gamma                90.0
loop_
_atom_site_label
_atom_site_type_symbol
_atom_site_fract_x
_atom_site_fract_y
_atom_site_fract_z
     1  I          0.54922200       0.00062400       0.26525200
     2  I          0.95077800       0.50062400       0.23474800
     3  I          0.45077800      -0.00062400       0.73474800
     4  I          0.04922200       0.49937600       0.76525200
     5  I          0.66289200       0.17265400       0.00372200
     6  I          0.83710800       0.67265400       0.49627800
     7  I          0.33710800       0.82734600      -0.00372200
     8  I          0.16289200       0.32734600       0.50372200
     9  F          0.73932150       0.90715000       0.18744130
    10  F          0.76067850       0.40715000       0.31255870
    11  F          0.26067850       0.09285000       0.81255870
    12  F          0.23932150       0.59285000       0.68744130
    13  F          0.78196140       0.59075000       0.08783120
    14  F          0.71803860       0.09075000       0.41216880
    15  F          0.21803860       0.40925000       0.91216880
    16  F          0.28196140       0.90925000       0.58783120
    17  F          0.43021150       0.57735000       0.18108130
    18  F          0.06978850       0.07735000       0.31891870
    19  F          0.56978850       0.42265000       0.81891870
    20  F          0.93021150       0.92265000       0.68108130
    21  F          0.47290160       0.26265000       0.08119140
    22  F          0.02709840       0.76265000       0.41880860
    23  F          0.52709840       0.73735000       0.91880860
    24  F          0.97290160       0.23735000       0.58119140
    25  C          0.58362000       0.75016000       0.18782170
    26  C          0.91638000       0.25016000       0.31217830
    27  C          0.41638000       0.24984000       0.81217830
    28  C          0.08362000       0.74984000       0.68782170
    29  C          0.69552000       0.58296000       0.11103180
    30  C          0.80448000       0.08296000       0.38896820
    31  C          0.30448000       0.41704000       0.88896820
    32  C          0.19552000       0.91704000       0.61103180
    33  C          0.62892000       0.41586000       0.08205170
    34  C          0.87108000       0.91586000       0.41794830
    35  C          0.37108000       0.58414000       0.91794830
    36  C          0.12892000       0.08414000       0.58205170
    37  C          0.67292000       0.74596000       0.16282180
    38  C          0.82708000       0.24596000       0.33717820
    39  C          0.32708000       0.25404000       0.83717820
    40  C          0.17292000       0.75404000       0.66282180
    41  C          0.51782000       0.58367000       0.15858190
    42  C          0.98218000       0.08367000       0.34141810
    43  C          0.48218000       0.41633000       0.84141810
    44  C          0.01782000       0.91633000       0.65858190
    45  C          0.54002000       0.42017000       0.10693190
    46  C          0.95998000       0.92017000       0.39306810
    47  C          0.45998000       0.57983000       0.89306810
    48  C          0.04002000       0.07983000       0.60693190
    49  O          0.52073170       0.69455000       0.44002130
    50  O          0.97926830       0.19455000       0.05997870
    51  O          0.47926830       0.30545000       0.55997870
    52  O          0.02073170       0.80545000       0.94002130
    53  N          0.50352000       0.37096000       0.36727180
    54  N         -0.00352000       0.87096000       0.13272820
    55  N          0.49648000       0.62904000       0.63272820
    56  N          0.00352000       0.12904000       0.86727180
    57  C          0.42592000       0.68176000       0.41347180
    58  C          0.07408000       0.18176000       0.08652820
    59  C          0.57408000       0.31824000       0.58652820
    60  C          0.92592000       0.81824000       0.91347180
    61  C          0.41433000       0.48276000       0.36905190
    62  C          0.08567000      -0.01724000       0.13094810
    63  C          0.58567000       0.51724000       0.63094810
    64  C          0.91433000       0.01724000       0.86905190
    65  C          0.25103000       0.58099000       0.34762000
    66  C          0.24897000       0.08099000       0.15238000
    67  C          0.74897000       0.41901000       0.65238000
    68  C          0.75103000       0.91901000       0.84762000
    69  H          0.18909600       0.54914100       0.32494300
    70  H          0.31090400       0.04914100       0.17505700
    71  H          0.81090400       0.45085900       0.67505700
    72  H          0.68909600       0.95085900       0.82494300
    73  C          0.35323000       0.83717000       0.42772000
    74  C          0.14677000       0.33717000       0.07228000
    75  C          0.64677000       0.16283000       0.57228000
    76  C          0.85323000       0.66283000       0.92772000
    77  H          0.36300800       0.97221500       0.45900400
    78  H          0.13699200       0.47221500       0.04099600
    79  H          0.63699200       0.02778500       0.54099600
    80  H          0.86300800       0.52778500       0.95900400
    81  C          0.26483000       0.78018000       0.39272000
    82  C          0.23517000       0.28018000       0.10728000
    83  C          0.73517000       0.21982000       0.60728000
    84  C          0.76483000       0.71982000       0.89272000
    85  H          0.21204800       0.88071400       0.39990200
    86  H          0.28795200       0.38071400       0.10009800
    87  H          0.78795200       0.11928600       0.60009800
    88  H          0.71204800       0.61928600       0.89990200
    89  C          0.32543000       0.42598000       0.33462000
    90  C          0.17457000       0.92598000       0.16538000
    91  C          0.67457000       0.57402000       0.66538000
    92  C          0.82543000       0.07402000       0.83462000
    93  H          0.31588500       0.28915700       0.30392900
    94  H          0.18411500       0.78915700       0.19607100
    95  H          0.68411500       0.71084300       0.69607100
    96  H          0.81588500       0.21084300       0.80392900
    97  C          0.55933000       0.50217000       0.40792000
    98  C          0.94067000       0.00217000       0.09208000
    99  C          0.44067000       0.49783000       0.59208000
   100  C          0.05933000      -0.00217000       0.90792000
   101  H          0.62534400       0.46739000       0.41565700
   102  H          0.87465600       0.96739000       0.08434300
   103  H          0.37465600       0.53261000       0.58434300
   104  H          0.12534400       0.03261000       0.91565700
