data_LOXCOS
_symmetry_space_group_name_H-M    'P1'
_symmetry_Int_Tables_number       1
loop_
_symmetry_equiv_pos_site_id
_symmetry_equiv_pos_as_xyz
1 x,y,z
_cell_length_a                   6.894011
_cell_length_b                   7.632312
_cell_length_c                   9.917415
_cell_angle_alpha                79.2862
_cell_angle_beta                 71.2212
_cell_angle_gamma                81.6832
loop_
_atom_site_label
_atom_site_type_symbol
_atom_site_fract_x
_atom_site_fract_y
_atom_site_fract_z
     1  B          0.77767000       0.41177000       0.51246000
     2  B          0.08707000       0.14006000       0.02055000
     3  O          0.73514000       0.52935000       0.40384000
     4  H          0.84150000       0.55980000       0.33650000
     5  O          0.97484000       0.35384000       0.51213000
     6  H          0.07160000       0.41460000       0.45950000
     7  O          0.11584000       0.08774000       0.15073000
     8  H          0.00750000       0.06870000       0.21840000
     9  O          0.91086000       0.12945000      -0.00597000
    10  H          0.81240000       0.09180000       0.06440000
    11  C          0.59626000       0.34386000       0.64715000
    12  C          0.63376000       0.24015000       0.76985000
    13  H          0.76870000       0.21040000       0.77150000
    14  C          0.47466000       0.18125000       0.88825000
    15  H          0.50480000       0.11610000       0.96930000
    16  C          0.27016000       0.21645000       0.88984000
    17  C          0.23266000       0.32015000       0.76724000
    18  H          0.09790000       0.34560000       0.76410000
    19  C          0.39116000       0.38555000       0.65055000
    20  H          0.36030000       0.45880000       0.57260000
    21  N          0.60484000       0.65204000       0.13473000
    22  H          0.58680000       0.57150000       0.20930000
    23  H          0.63170000       0.74840000       0.15750000
    24  O          0.06535000       0.62875000       0.18924000
    25  O          0.28385000       0.49115000       0.30653000
    26  C          0.23647000       0.59686000       0.20675000
    27  C          0.40856000       0.69746000       0.09854000
    28  H          0.36960000       0.82600000       0.09920000
    29  C          0.46128000       0.66048000       0.94524000
    30  H          0.42590000       0.54220000       0.94420000
    31  H          0.38730000       0.74860000       0.89130000
    32  C          0.68838000       0.67188000       0.88214000
    33  H          0.72030000       0.79510000       0.84850000
    34  H          0.74570000       0.60330000       0.80290000
    35  C          0.76698000       0.59229000       0.00696000
    36  H          0.78490000       0.46260000       0.01590000
    37  H          0.89740000       0.63610000      -0.00460000
    38  N          0.22414000       0.03475000       0.41843000
    39  H          0.26870000       0.02670000       0.32811300
    40  H          0.13960000       0.12940000       0.43350000
    41  O          0.76905000       0.03666000       0.36154000
    42  O          0.59354000      -0.01516000       0.22143000
    43  C          0.60976000       0.02155000       0.33495000
    44  C          0.41446000       0.04805000       0.45864000
    45  H          0.40690000       0.16720000       0.48430000
    46  C          0.40037000       0.91037000       0.59245000
    47  H          0.49380000       0.80470000       0.56920000
    48  H          0.43390000       0.95960000       0.66460000
    49  C          0.18067000       0.86477000       0.64575000
    50  H          0.09260000       0.95130000       0.70420000
    51  H          0.16890000       0.74620000       0.70200000
    52  C          0.12528000       0.87207000       0.50946000
    53  H          0.18190000       0.76530000       0.46490000
    54  H          0.97730000       0.88660000       0.52740000
