data_LOXDIN
_symmetry_space_group_name_H-M    'P1'
_symmetry_Int_Tables_number       1
loop_
_symmetry_equiv_pos_site_id
_symmetry_equiv_pos_as_xyz
1 x,y,z
_cell_length_a                   7.685614
_cell_length_b                   5.846211
_cell_length_c                   14.9333
_cell_angle_alpha                90.0
_cell_angle_beta                 103.9533
_cell_angle_gamma                90.0
loop_
_atom_site_label
_atom_site_type_symbol
_atom_site_fract_x
_atom_site_fract_y
_atom_site_fract_z
     1  B          0.54325000       0.58378000       0.74893000
     2  B          0.45675000       0.08378000       0.25107000
     3  O          0.69294000       0.47526000       0.79342000
     4  O          0.30706000       0.97526000       0.20658000
     5  H          0.75340000       0.54850000       0.83930000
     6  H          0.24660000       0.04850000       0.16070000
     7  O          0.48304000       0.77476000       0.78045180
     8  O          0.51696000       0.27476000       0.21954820
     9  H          0.53960000       0.81412000       0.83381700
    10  H          0.46040000       0.31412000       0.16618300
    11  C          0.43364000       0.47786000       0.65632000
    12  C          0.56636000      -0.02214000       0.34368000
    13  C          0.28744000       0.59357000       0.60152000
    14  C          0.71256000       0.09357000       0.39848000
    15  H          0.25390000       0.73440000       0.62090000
    16  H          0.74610000       0.23440000       0.37910000
    17  C          0.19195000       0.50331000       0.51922000
    18  C          0.80805000       0.00331000       0.48078000
    19  H          0.09500000       0.58320000       0.48350000
    20  H          0.90500000       0.08320000       0.51650000
    21  C          0.23935000       0.29561000       0.48972000
    22  C          0.76065000       0.79561000       0.51028000
    23  H          0.17490000       0.23500000       0.43400000
    24  H          0.82510000       0.73500000       0.56600000
    25  C          0.38075000       0.17797000       0.54202000
    26  C          0.61925000       0.67797000       0.45798000
    27  H          0.41260000       0.03680000       0.52200000
    28  H          0.58740000       0.53680000       0.47800000
    29  C          0.47644000       0.26746000       0.62432000
    30  C          0.52356000       0.76746000       0.37568000
    31  H          0.57230000       0.18480000       0.65940000
    32  H          0.42770000       0.68480000       0.34060000
    33  N          0.12303000       0.22564000       0.89307160
    34  N          0.87697000       0.72564000       0.10692840
    35  H          0.20930000       0.21880000       0.94201300
    36  H          0.79070000       0.71880000       0.05798700
    37  H          0.05440000       0.33840000       0.89920000
    38  H          0.94560000       0.83840000       0.10080000
    39  O         -0.01963000       0.64896000       0.92269140
    40  O          0.01963000       0.14896000       0.07730860
    41  O          0.24152000       0.82696000       0.97104140
    42  O          0.75848000       0.32696000       0.02895860
    43  C          0.08243000       0.81675000       0.92651170
    44  C          0.91757000       0.31675000       0.07348830
    45  C          0.00314000       0.02175000       0.86892180
    46  C         -0.00314000       0.52175000       0.13107820
    47  H          0.88470000       0.05650000       0.87920000
    48  H          0.11530000       0.55650000       0.12080000
    49  C         -0.01245000      -0.01557000       0.76562000
    50  C          0.01245000       0.48443000       0.23438000
    51  H          0.05650000       0.85180000       0.75580000
    52  H          0.94350000       0.35180000       0.24420000
    53  H          0.86340000       0.96170000       0.73310000
    54  H          0.13660000       0.46170000       0.26690000
    55  C          0.06145000       0.19898000       0.73232000
    56  C          0.93855000       0.69898000       0.26768000
    57  H          0.11240000       0.16610000       0.68030000
    58  H          0.88760000       0.66610000       0.31970000
    59  H          0.96840000       0.31360000       0.71410000
    60  H          0.03160000       0.81360000       0.28590000
    61  C          0.20174000       0.27737000       0.81292000
    62  C          0.79826000       0.77737000       0.18708000
    63  H          0.22440000       0.43980000       0.80890000
    64  H          0.77560000       0.93980000       0.19110000
    65  H          0.31290000       0.19430000       0.81760000
    66  H          0.68710000       0.69430000       0.18240000
    67  O          0.59543000       0.91703000       0.96133170
    68  O          0.40457000       0.41703000       0.03866830
    69  H          0.64250000       0.04430000       0.98030000
    70  H          0.35750000       0.54430000       0.01970000
    71  H          0.49220000       0.93390000       0.96920000
    72  H          0.50780000       0.43390000       0.03080000
