data_LOXSEA
_symmetry_space_group_name_H-M    'P1'
_symmetry_Int_Tables_number       1
loop_
_symmetry_equiv_pos_site_id
_symmetry_equiv_pos_as_xyz
1 x,y,z
_cell_length_a                   8.89345
_cell_length_b                   11.48007
_cell_length_c                   12.72869
_cell_angle_alpha                115.3223
_cell_angle_beta                 95.3593
_cell_angle_gamma                107.5163
loop_
_atom_site_label
_atom_site_type_symbol
_atom_site_fract_x
_atom_site_fract_y
_atom_site_fract_z
     1  O          0.70824190       0.43548140       0.85949150
     2  O          0.29175810       0.56451860       0.14050850
     3  H          0.72474900       0.37016800       0.86221700
     4  H          0.27525100       0.62983200       0.13778300
     5  O          0.49227190       0.26752140       0.71611160
     6  O          0.50772810       0.73247860       0.28388840
     7  O          0.49964160       0.66917130       0.65227130
     8  O          0.50035840       0.33082870       0.34772870
     9  O          0.26518170       0.50346130       0.52912120
    10  O          0.73481830       0.49653870       0.47087880
    11  H          0.26320400       0.56246800       0.50951300
    12  H          0.73679600       0.43753200       0.49048700
    13  O          0.48213180       0.79682140       0.93770130
    14  O          0.51786820       0.20317860       0.06229870
    15  O          0.25256150       0.62294120       0.81144120
    16  O          0.74743850       0.37705880       0.18855880
    17  H          0.22945900       0.68601400       0.80933900
    18  H          0.77054100       0.31398600       0.19066100
    19  O          0.68467140       0.60641130       0.78277130
    20  O          0.31532860       0.39358870       0.21722870
    21  C          0.40182000       0.67457170       0.87923140
    22  C          0.59818000       0.32542830       0.12076860
    23  C          0.46032000       0.56243180       0.87468150
    24  C          0.53968000       0.43756820       0.12531850
    25  H          0.36905100       0.48605000       0.86915600
    26  H          0.63094900       0.51395000       0.13084400
    27  H          0.54122100       0.59964200       0.94921200
    28  H          0.45877900       0.40035800       0.05078800
    29  C          0.53561180       0.50534150       0.76812140
    30  C          0.46438820       0.49465850       0.23187860
    31  C          0.41952000       0.44530160       0.64498140
    32  C          0.58048000       0.55469840       0.35501860
    33  H          0.45887700       0.38488600       0.58411700
    34  H          0.54112300       0.61511400       0.41588300
    35  H          0.31300000       0.38825300       0.64367400
    36  H          0.68700000       0.61174700       0.35632600
    37  C          0.39992000       0.55236170       0.61133140
    38  C          0.60008000       0.44763830       0.38866860
    39  C          0.57632000       0.38838170       0.77744160
    40  C          0.42368000       0.61161830       0.22255840
    41  H          0.66430000       0.66030000       0.75930000
    42  H          0.33570000       0.33970000       0.24070000
    43  N          0.22434190       0.68473160       0.46501140
    44  N          0.77565810       0.31526840       0.53498860
    45  N          0.09880190       0.96482150       0.38219130
    46  N          0.90119810       0.03517850       0.61780870
    47  N          0.96669820       0.91672150       0.30878140
    48  N          0.03330180       0.08327850       0.69121860
    49  N          0.83754820       0.19300150       0.22220130
    50  N          0.16245180       0.80699850       0.77779870
    51  C          0.31452000       0.81932000       0.52070170
    52  C          0.68548000       0.18068000       0.47929830
    53  H          0.40861500       0.85216100       0.58025100
    54  H          0.59138500       0.14783900       0.41974900
    55  C          0.27582000       0.91431190       0.49488160
    56  C          0.72418000       0.08568810       0.50511840
    57  H          0.34189500       0.00853400       0.53603600
    58  H          0.65810500      -0.00853400       0.46396400
    59  C          0.13582000       0.86419170       0.40593150
    60  C          0.86418000       0.13580830       0.59406850
    61  C          0.04232000       0.72412000       0.34600180
    62  C          0.95768000       0.27588000       0.65399820
    63  H          0.94873800       0.68792500       0.28488400
    64  H          0.05126200       0.31207500       0.71511600
    65  C          0.09083000       0.63892000       0.37882000
    66  C          0.90917000       0.36108000       0.62118000
    67  H          0.02711700       0.54415400       0.33868200
    68  H          0.97288300       0.45584600       0.66131800
    69  C         -0.01822000       0.23750180       0.29736170
    70  C          0.01822000       0.76249820       0.70263830
    71  H          0.05139500       0.32992600       0.32857900
    72  H          0.94860500       0.67007400       0.67142100
    73  C          0.03322000       0.15367180       0.33122160
    74  C          0.96678000       0.84632820       0.66877840
    75  H          0.13419500       0.18855500       0.38450900
    76  H          0.86580500       0.81144500       0.61549100
    77  C          0.92988000       0.01672170       0.28350150
    78  C          0.07012000      -0.01672170       0.71649850
    79  C          0.78098000       0.96801180       0.20410160
    80  C          0.21902000       0.03198820       0.79589840
    81  H          0.71011300       0.87558000       0.17049300
    82  H          0.28988700       0.12442000       0.82950700
    83  C          0.73968000       0.06011180       0.17578150
    84  C          0.26032000       0.93988820       0.82421850
    85  H          0.63972700       0.02776000       0.12221700
    86  H          0.36027300       0.97224000       0.87778300
    87  N          0.79295180       0.25099160       0.88561140
    88  N          0.20704820       0.74900840       0.11438860
    89  N          0.93401170       0.97485860       0.96290130
    90  N          0.06598830       0.02514140       0.03709870
    91  C          0.93902000       0.29597190       0.95910180
    92  C          0.06098000       0.70402810       0.04089820
    93  H          0.00671600       0.38917500      -0.00818300
    94  H         -0.00671600       0.61082500       0.00818300
    95  C         -0.00548000       0.21162180      -0.01115840
    96  C          0.00548000       0.78837820       0.01115840
    97  H          0.09706800       0.24622000       0.04007200
    98  H          0.90293200       0.75378000       0.95992800
    99  C          0.89279190       0.07446160       0.94016140
   100  C          0.10720810       0.92553840       0.05983860
   101  C          0.74162000       0.02569180       0.86326160
   102  C          0.25838000       0.97430820       0.13673840
   103  H          0.67167100       0.93287100       0.82889800
   104  H          0.32832900       0.06712900       0.17110200
   105  C          0.69742000       0.11888190       0.83901160
   106  C          0.30258000       0.88111810       0.16098840
   107  H          0.59580600       0.08696600       0.78753000
   108  H          0.40419400       0.91303400       0.21247000
