data_LOXSUC11
_symmetry_space_group_name_H-M    'P1'
_symmetry_Int_Tables_number       1
loop_
_symmetry_equiv_pos_site_id
_symmetry_equiv_pos_as_xyz
1 x,y,z
_cell_length_a                   9.41716
_cell_length_b                   9.76047
_cell_length_c                   13.79499
_cell_angle_alpha                74.7082
_cell_angle_beta                 86.1022
_cell_angle_gamma                65.5182
loop_
_atom_site_label
_atom_site_type_symbol
_atom_site_fract_x
_atom_site_fract_y
_atom_site_fract_z
     1  O          0.59307170       0.34796180       0.96876130
     2  O          0.40692830       0.65203820       0.03123870
     3  H          0.62930000       0.42430000       0.94621900
     4  H          0.37070000       0.57570000       0.05378100
     5  H          0.66230000       0.26930000       0.94320000
     6  H          0.33770000       0.73070000       0.05680000
     7  O          0.25552150       0.45910150       0.06687900
     8  O          0.74447850       0.54089850       0.93312100
     9  O          0.31724170       0.40868170       0.91680100
    10  O          0.68275830       0.59131830       0.08319900
    11  C          0.21752000       0.44972000       0.98668130
    12  C          0.78248000       0.55028000       0.01331870
    13  C          0.05412000       0.48782000       0.95707130
    14  C          0.94588000       0.51218000       0.04292870
    15  H          0.05210000       0.40190000       0.93260000
    16  H          0.94790000       0.59810000       0.06740000
    17  H          0.01590000       0.58360000       0.90100000
    18  H          0.98410000       0.41640000       0.09900000
    19  H          0.41111800       0.39840000       0.93020000
    20  H          0.58888200       0.60160000       0.06980000
    21  Cl         0.40819600       0.50818500       0.35678400
    22  Cl         0.59180400       0.49181500       0.64321600
    23  H          0.63330000       0.94080000       0.85691600
    24  H          0.36670000       0.05920000       0.14308400
    25  O          0.98303130       0.93676870       0.40074900
    26  O          0.01696870       0.06323130       0.59925100
    27  N          0.53880170       0.98561840       0.81396100
    28  N          0.46119830       0.01438160       0.18603900
    29  N          0.67511170       0.94949850       0.62574100
    30  N          0.32488830       0.05050150       0.37425900
    31  N          0.80274170       0.78717840       0.52527100
    32  N          0.19725830       0.21282160       0.47472900
    33  C          0.53762000       0.12201190       0.73264120
    34  C          0.46238000       0.87798810       0.26735880
    35  H          0.53980000       0.20270000       0.76270000
    36  H          0.46020000       0.79730000       0.23730000
    37  H          0.44100000       0.16810000       0.68940000
    38  H          0.55900000       0.83190000       0.31060000
    39  C          0.95809190       0.81759810       0.37534120
    40  C          0.04190810       0.18240190       0.62465880
    41  C          0.74361190       0.92687810       0.53600120
    42  C          0.25638810       0.07312190       0.46399880
    43  C          0.72601190       0.07047190       0.45642120
    44  C          0.27398810       0.92952810       0.54357880
    45  C          0.58982000       0.20738190       0.44392120
    46  C          0.41018000       0.79261810       0.55607880
    47  H          0.50490000       0.21010000       0.48590000
    48  H          0.49510000       0.78990000       0.51410000
    49  C          0.92952000       0.57198000       0.32989140
    50  C          0.07048000       0.42802000       0.67010860
    51  H          0.91900000       0.48750000       0.31410000
    52  H          0.08100000       0.51250000       0.68590000
    53  C          0.54232000       0.86028000       0.76954120
    54  C          0.45768000       0.13972000       0.23045880
    55  H          0.44490000       0.89840000       0.72830000
    56  H          0.55510000       0.10160000       0.27170000
    57  H          0.54810000       0.76880000       0.82420000
    58  H          0.45190000       0.23120000       0.17580000
    59  C          0.84602000       0.07001190       0.39120120
    60  C          0.15398000       0.92998810       0.60879880
    61  C          0.85582000       0.62408000       0.41191130
    62  C          0.14418000       0.37592000       0.58808870
    63  H          0.79630000       0.57410000       0.45210000
    64  H          0.20370000       0.42590000       0.54790000
    65  C          0.67872000       0.06907190       0.67029120
    66  C          0.32128000       0.93092810       0.32970880
    67  H          0.67870000       0.15900000       0.61630000
    68  H          0.32130000       0.84100000       0.38370000
    69  H          0.77530000       0.02590000       0.71320000
    70  H          0.22470000       0.97410000       0.28680000
    71  C          0.83272000       0.20272000       0.31697130
    72  C          0.16728000       0.79728000       0.68302870
    73  H          0.91550000       0.19990000       0.27300000
    74  H          0.08450000       0.80010000       0.72700000
    75  C          0.57902000       0.33902000       0.37015130
    76  C          0.42098000       0.66098000       0.62984870
    77  C          0.68142000       0.81240810       0.70463120
    78  C          0.31858000       0.18759190       0.29536880
    79  H          0.77940000       0.76710000       0.74650000
    80  H          0.22060000       0.23290000       0.25350000
    81  H          0.67990000       0.73230000       0.67370000
    82  H          0.32010000       0.26770000       0.32630000
    83  C          0.40302000       0.03342000       0.87795140
    84  C          0.59698000       0.96658000       0.12204860
    85  H          0.40400000       0.11520000       0.90620000
    86  H          0.59600000       0.88480000       0.09380000
    87  H          0.40920000       0.94330000       0.93270000
    88  H          0.59080000       0.05670000       0.06730000
    89  H          0.30610000       0.07340000       0.83720000
    90  H          0.69390000       0.92660000       0.16280000
    91  C          0.86802000       0.74938810       0.43627120
    92  C          0.13198000       0.25061190       0.56372880
    93  C          0.69932000       0.33872000       0.30689140
    94  C          0.30068000       0.66128000       0.69310860
    95  H          0.69030000       0.43070000       0.25730000
    96  H          0.30970000       0.56930000       0.74270000
    97  C          0.01802000       0.64208000       0.27091130
    98  C          0.98198000       0.35792000       0.72908870
    99  H          0.06890000       0.60540000       0.21520000
   100  H          0.93110000       0.39460000       0.78480000
   101  C          0.03202000       0.76618000       0.29355130
   102  C          0.96798000       0.23382000       0.70644870
   103  H          0.09190000       0.81560000       0.25320000
   104  H          0.90810000       0.18440000       0.74680000
   105  C          0.99072000       0.93242000       0.98823140
   106  C          0.00928000       0.06758000       0.01176860
   107  H         -0.00330000       0.85460000       0.05230000
   108  H          0.00330000       0.14540000       0.94770000
   109  H          0.07980000       0.88210000       0.94870000
   110  H          0.92020000       0.11790000       0.05130000
   111  O          0.75413150       0.11491140       0.89341900
   112  O          0.24586850       0.88508860       0.10658100
   113  O          0.80886160       0.86549140       0.92070100
   114  O          0.19113840       0.13450860       0.07929900
   115  C          0.83972000       0.97542000       0.93035120
   116  C          0.16028000       0.02458000       0.06964880
