data_LOXWAA
_symmetry_space_group_name_H-M    'P1'
_symmetry_Int_Tables_number       1
loop_
_symmetry_equiv_pos_site_id
_symmetry_equiv_pos_as_xyz
1 x,y,z
_cell_length_a                   7.25805
_cell_length_b                   7.72154
_cell_length_c                   22.28718
_cell_angle_alpha                91.1806
_cell_angle_beta                 95.4657
_cell_angle_gamma                102.8207
loop_
_atom_site_label
_atom_site_type_symbol
_atom_site_fract_x
_atom_site_fract_y
_atom_site_fract_z
     1  O          0.69862000       0.52312000       0.63988700
     2  O          0.30138000       0.47688000       0.36011300
     3  H          0.78854100       0.55865800       0.62027100
     4  H          0.21145900       0.44134200       0.37972900
     5  O          0.91452000       0.42552000       0.70008800
     6  O          0.08548000       0.57448000       0.29991200
     7  O          0.36923000       0.04022000       0.79802700
     8  O          0.63077000       0.95978000       0.20197300
     9  O          0.44243000       0.29722000       0.84865800
    10  O          0.55757000       0.70278000       0.15134200
    11  O          0.63623000       0.73442000       0.77642800
    12  O          0.36377000       0.26558000       0.22357200
    13  O          0.35912000       0.76012000       0.73207700
    14  O          0.64088000       0.23988000       0.26792300
    15  H          0.38278900       0.85399900       0.75214400
    16  H          0.61721100       0.14600100       0.24785600
    17  C          0.49143000       0.67143000       0.74654900
    18  C          0.50857000       0.32857000       0.25345100
    19  C          0.43643000       0.48293000       0.72111900
    20  C          0.56357000       0.51707000       0.27888100
    21  H          0.33247000       0.41710600       0.74163700
    22  H          0.66753000       0.58289400       0.25836300
    23  H          0.39158900       0.48300200       0.67869400
    24  H          0.60841100       0.51699800       0.32130600
    25  C          0.59863000       0.39033000       0.72769900
    26  C          0.40137000       0.60967000       0.27230100
    27  C          0.75643000       0.44773000       0.68822900
    28  C          0.24357000       0.55227000       0.31177100
    29  C          0.61013000       0.26313000       0.76522900
    30  C          0.38987000       0.73687000       0.23477100
    31  H          0.71605400       0.21364700       0.76613700
    32  H          0.28394600       0.78635300       0.23386300
    33  C          0.46303000       0.19373000       0.80638900
    34  C          0.53697000       0.80627000       0.19361100
    35  N          0.74057000       0.22793000       0.05511800
    36  N          0.25943000       0.77207000       0.94488200
    37  N          0.13543000       0.17132000       0.89937800
    38  N          0.86457000       0.82868000       0.10062200
    39  H          0.24559800       0.19677300       0.88635000
    40  H          0.75440200       0.80322700       0.11365000
    41  C          0.72876000       0.28854000       0.11008110
    42  C          0.27124000       0.71146000       0.88991890
    43  H          0.60965900       0.26602000       0.12420000
    44  H          0.39034100       0.73398000       0.87580000
    45  C          0.88076000       0.38294000       0.14814110
    46  C          0.11924000       0.61706000       0.85185890
    47  H          0.86301300       0.42158700       0.18651100
    48  H          0.13698700       0.57841300       0.81348900
    49  C          0.05584000       0.41813000       0.12879100
    50  C          0.94416000       0.58187000       0.87120900
    51  H          0.16022400       0.48113700       0.15370600
    52  H          0.83977600       0.51886300       0.84629400
    53  C          0.07733000       0.35823000       0.07055900
    54  C          0.92267000       0.64177000       0.92944100
    55  C          0.91587000       0.26263000       0.03565900
    56  C          0.08413000       0.73737000       0.96434100
    57  C          0.93377000       0.19563000       0.97617900
    58  C          0.06623000       0.80437000       0.02382100
    59  C          0.78247000       0.09523000       0.93840100
    60  C          0.21753000       0.90477000       0.06159900
    61  H          0.66091300       0.07002500       0.95077800
    62  H          0.33908700       0.92997500       0.04922200
    63  C          0.81266000       0.03343000       0.88305100
    64  C          0.18734000       0.96657000       0.11694900
    65  H          0.71266400       0.96347800       0.85810200
    66  H          0.28733600       0.03652200       0.14189800
    67  C         -0.00814000       0.07543000       0.86456110
    68  C          0.00814000       0.92457000       0.13543890
    69  H          0.01173200       0.03505000       0.82661900
    70  H         -0.01173200       0.96495000       0.17338100
    71  C          0.11493000       0.23173000       0.95553900
    72  C          0.88507000       0.76827000       0.04446100
    73  C          0.27653000       0.32693000       0.99213100
    74  C          0.72347000       0.67307000       0.00786900
    75  H          0.39568500       0.34706200       0.97806600
    76  H          0.60431500       0.65293800       0.02193400
    77  C          0.25673000       0.38813000       0.04745100
    78  C          0.74327000       0.61187000       0.95254900
    79  H          0.36339300       0.45172000       0.07124900
    80  H          0.63660700       0.54828000       0.92875100
    81  N          0.96543000       0.64362000       0.56985800
    82  N          0.03457000       0.35638000       0.43014200
    83  N          0.23053000       0.94043000       0.40056900
    84  N          0.76947000       0.05957000       0.59943100
    85  C          0.20054000       0.01293000       0.34835110
    86  C          0.79946000      -0.01293000       0.65164890
    87  H          0.30621400       0.06603300       0.32937600
    88  H          0.69378600       0.93396700       0.67062400
    89  C          0.02405000       0.01563000       0.32002110
    90  C         -0.02405000      -0.01563000       0.67997890
    91  H          0.01284100       0.06961700       0.28336000
    92  H         -0.01284100       0.93038300       0.71664000
    93  C          0.86654000       0.93813000       0.34635100
    94  C          0.13346000       0.06187000       0.65364900
    95  H          0.74587500       0.93742800       0.32785300
    96  H          0.25412500       0.06257200       0.67214700
    97  C          0.88913000       0.85933000       0.40193900
    98  C          0.11087000       0.14067000       0.59806100
    99  C          0.07403000       0.86533000       0.42750900
   100  C          0.92597000       0.13467000       0.57249100
   101  C          0.10373000       0.79133000       0.48533900
   102  C          0.89627000       0.20867000       0.51466100
   103  C          0.94503000       0.71413000       0.51475900
   104  C          0.05497000       0.28587000       0.48524100
   105  C          0.75923000       0.70823000       0.48729100
   106  C          0.24077000       0.29177000       0.51270900
   107  H          0.65478300       0.65544200       0.50690600
   108  H          0.34521700       0.34455800       0.49309400
   109  C          0.73213000       0.77763000       0.43341100
   110  C          0.26787000       0.22237000       0.56658900
   111  H          0.60896500       0.77253400       0.41624400
   112  H          0.39103500       0.22746600       0.58375600
   113  C          0.28343000       0.79583000       0.51433100
   114  C          0.71657000       0.20417000       0.48566900
   115  H          0.39131300       0.84643600       0.49600800
   116  H          0.60868700       0.15356400       0.50399200
   117  C          0.30043000       0.72593000       0.56958100
   118  C          0.69957000       0.27407000       0.43041900
   119  H          0.41960400       0.72831500       0.58946100
   120  H          0.58039600       0.27168500       0.41053900
   121  C          0.13713000       0.65103000       0.59573100
   122  C          0.86287000       0.34897000       0.40426900
   123  H          0.14990000       0.60362800       0.63352600
   124  H          0.85010000       0.39637200       0.36647400
