data_LOYLUJ
_symmetry_space_group_name_H-M    'P1'
_symmetry_Int_Tables_number       1
loop_
_symmetry_equiv_pos_site_id
_symmetry_equiv_pos_as_xyz
1 x,y,z
_cell_length_a                   12.83272
_cell_length_b                   5.350201
_cell_length_c                   27.52443
_cell_angle_alpha                90.0
_cell_angle_beta                 99.65288
_cell_angle_gamma                90.0
loop_
_atom_site_label
_atom_site_type_symbol
_atom_site_fract_x
_atom_site_fract_y
_atom_site_fract_z
     1  Br         0.09190200       0.54569300       0.43072200
     2  Br         0.40809800       0.04569300       0.06927800
     3  Br         0.90809800       0.45430700       0.56927800
     4  Br         0.59190200       0.95430700       0.93072200
     5  N          0.28873900       0.38143000       0.49560500
     6  N          0.21126100       0.88143000       0.00439500
     7  N          0.71126100       0.61857000       0.50439500
     8  N          0.78873900       0.11857000      -0.00439500
     9  N          0.32123100       0.66603000       0.43696400
    10  N          0.17876900       0.16603000       0.06303600
    11  N          0.67876900       0.33397000       0.56303600
    12  N          0.82123100       0.83397000       0.93696400
    13  B          0.24101140       0.53054000       0.45531700
    14  B          0.25898860       0.03054000       0.04468300
    15  B          0.75898860       0.46946000       0.54468300
    16  B          0.74101140       0.96946000       0.95531700
    17  C          0.39961120       0.42283000       0.50172500
    18  C          0.10038880       0.92283000      -0.00172500
    19  C          0.60038880       0.57717000       0.49827500
    20  C          0.89961120       0.07717000       0.00172500
    21  C          0.41951120       0.60003000       0.46649500
    22  C          0.08048880       0.10003000       0.03350500
    23  C          0.58048880       0.39997000       0.53350500
    24  C          0.91951120       0.89997000       0.96649500
    25  C          0.52073120       0.69453000       0.46506500
    26  C          0.97926880       0.19453000       0.03493500
    27  C          0.47926880       0.30547000       0.53493500
    28  C          0.02073120       0.80547000       0.96506500
    29  C          0.54197120       0.92403000       0.43606600
    30  C          0.95802880       0.42403000       0.06393400
    31  C          0.45802880       0.07597000       0.56393400
    32  C          0.04197120       0.57597000       0.93606600
    33  H          0.60196900       0.01634500       0.45435400
    34  H          0.89803100       0.51634500       0.04564600
    35  H          0.39803100      -0.01634500       0.54564600
    36  H          0.10196900       0.48365500       0.95435400
    37  H          0.47920500       0.03137600       0.43104200
    38  H          0.02079500       0.53137600       0.06895800
    39  H          0.52079500       0.96862400       0.56895800
    40  H          0.97920500       0.46862400       0.93104200
    41  H          0.55847600       0.87289100       0.40401400
    42  H          0.94152400       0.37289100       0.09598600
    43  H          0.44152400       0.12710900       0.59598600
    44  H          0.05847600       0.62710900       0.90401400
    45  C          0.23634120       0.28293000       0.53380600
    46  C          0.26365880       0.78293000       0.96619400
    47  C          0.76365880       0.71707000       0.46619400
    48  C          0.73634120       0.21707000       0.03380600
    49  C          0.25181130       0.39694000       0.57986600
    50  C          0.24818870       0.89694000       0.92013400
    51  C          0.74818870       0.60306000       0.42013400
    52  C          0.75181130       0.10306000       0.07986600
    53  H          0.29771800       0.53660000       0.58637200
    54  H          0.20228200       0.03660000       0.91362800
    55  H          0.70228200       0.46340000       0.41362800
    56  H          0.79771800       0.96340000       0.08637200
    57  C          0.19924140       0.30384000       0.61625600
    58  C          0.30075860       0.80384000       0.88374400
    59  C          0.80075860       0.69616000       0.38374400
    60  C          0.69924140       0.19616000       0.11625600
    61  H          0.20943300       0.38019400       0.64784700
    62  H          0.29056700       0.88019400       0.85215300
    63  H          0.79056700       0.61980600       0.35215300
    64  H          0.70943300       0.11980600       0.14784700
    65  C          0.13221140       0.10074000       0.60679700
    66  C          0.36778860       0.60074000       0.89320300
    67  C          0.86778860       0.89926000       0.39320300
    68  C          0.63221140       0.39926000       0.10679700
    69  H          0.09710800       0.03702000       0.63193700
    70  H          0.40289200       0.53702000       0.86806300
    71  H          0.90289200       0.96298000       0.36806300
    72  H          0.59710800       0.46298000       0.13193700
    73  C          0.11633140      -0.00974000       0.56064700
    74  C          0.38366860       0.49026000       0.93935300
    75  C          0.88366860       0.00974000       0.43935300
    76  C          0.61633140       0.50974000       0.06064700
    77  H          0.06968600       0.85192300       0.55407500
    78  H          0.43031400       0.35192300       0.94592500
    79  H          0.93031400       0.14807700       0.44592500
    80  H          0.56968600       0.64807700       0.05407500
    81  C          0.16837130       0.08113000       0.52389600
    82  C          0.33162870       0.58113000       0.97610400
    83  C          0.83162870       0.91887000       0.47610400
    84  C          0.66837130       0.41887000       0.02389600
    85  H          0.15744000       0.00539300       0.49221900
    86  H          0.34256000       0.50539300       0.00778100
    87  H          0.84256000      -0.00539300       0.50778100
    88  H          0.65744000       0.49460700       0.99221900
    89  C          0.31127120       0.79773000       0.39108500
    90  C          0.18872880       0.29773000       0.10891500
    91  C          0.68872880       0.20227000       0.60891500
    92  C          0.81127120       0.70227000       0.89108500
    93  C          0.24395130       0.00253000       0.38277600
    94  C          0.25604870       0.50253000       0.11722400
    95  C          0.75604870      -0.00253000       0.61722400
    96  C          0.74395130       0.49747000       0.88277600
    97  H          0.20402300       0.05270800       0.40720300
    98  H          0.29597700       0.55270800       0.09279700
    99  H          0.79597700       0.94729200       0.59279700
   100  H          0.70402300       0.44729200       0.90720300
   101  C          0.23513130       0.13364000       0.33873600
   102  C          0.26486870       0.63364000       0.16126400
   103  C          0.76486870       0.86636000       0.66126400
   104  C          0.73513130       0.36636000       0.83873600
   105  H          0.18858500       0.27252900       0.33293100
   106  H          0.31141500       0.77252900       0.16706900
   107  H          0.81141500       0.72747100       0.66706900
   108  H          0.68858500       0.22747100       0.83293100
   109  C          0.29418140       0.06224000       0.30315600
   110  C          0.20581860       0.56224000       0.19684400
   111  C          0.70581860       0.93776000       0.69684400
   112  C          0.79418140       0.43776000       0.80315600
   113  H          0.28922600       0.15396600       0.27329600
   114  H          0.21077400       0.65396600       0.22670400
   115  H          0.71077400       0.84603400       0.72670400
   116  H          0.78922600       0.34603400       0.77329600
   117  C          0.36039130       0.85644000       0.31141600
   118  C          0.13960870       0.35644000       0.18858400
   119  C          0.63960870       0.14356000       0.68858400
   120  C          0.86039130       0.64356000       0.81141600
   121  H          0.40088900       0.80761400       0.28710200
   122  H          0.09911100       0.30761400       0.21289800
   123  H          0.59911100       0.19238600       0.71289800
   124  H          0.90088900       0.69238600       0.78710200
   125  C          0.36803130       0.72113000       0.35484600
   126  C          0.13196870       0.22113000       0.14515400
   127  C          0.63196870       0.27887000       0.64515400
   128  C          0.86803130       0.77887000       0.85484600
   129  H          0.41175700       0.57697100       0.35983200
   130  H          0.08824300       0.07697100       0.14016800
   131  H          0.58824300       0.42302900       0.64016800
   132  H          0.91175700       0.92302900       0.85983200
   133  C          0.14353150       0.35174000       0.80026700
   134  C          0.35646850       0.85174000       0.69973300
   135  C          0.85646850       0.64826000       0.19973300
   136  C          0.64353150       0.14826000       0.30026700
   137  H          0.19050800       0.35390600       0.83085100
   138  H          0.30949200       0.85390600       0.66914900
   139  H          0.80949200       0.64609400       0.16914900
   140  H          0.69050800       0.14609400       0.33085100
   141  C          0.06997140       0.16404000       0.79030700
   142  C          0.43002860       0.66404000       0.70969300
   143  C          0.93002860       0.83596000       0.20969300
   144  C          0.56997140       0.33596000       0.29030700
   145  H          0.06683800       0.03575200       0.81387800
   146  H          0.43316200       0.53575200       0.68612200
   147  H          0.93316200       0.96424800       0.18612200
   148  H          0.56683800       0.46424800       0.31387800
   149  C          0.00034150       0.16124000       0.74601700
   150  C          0.49965850       0.66124000       0.75398300
   151  C         -0.00034150       0.83876000       0.25398300
   152  C          0.50034150       0.33876000       0.24601700
   153  H          0.94951000       0.03129100       0.73924600
   154  H          0.55049000       0.53129100       0.76075400
   155  H          0.05049000       0.96870900       0.26075400
   156  H          0.44951000       0.46870900       0.23924600
   157  C          0.00493180       0.34744000       0.71171700
   158  C          0.49506820       0.84744000       0.78828300
   159  C         -0.00493180       0.65256000       0.28828300
   160  C          0.50493180       0.15256000       0.21171700
   161  H          0.95693800       0.34679800       0.68141100
   162  H          0.54306200       0.84679800       0.81858900
   163  H          0.04306200       0.65320200       0.31858900
   164  H          0.45693800       0.15320200       0.18141100
   165  C          0.07942000       0.53414000       0.72161900
   166  C          0.42058000       0.03414000       0.77838100
   167  C          0.92058000       0.46586000       0.27838100
   168  C          0.57942000       0.96586000       0.22161900
   169  H          0.08296800       0.66188100       0.69796900
   170  H          0.41703200       0.16188100       0.80203100
   171  H          0.91703200       0.33811900       0.30203100
   172  H          0.58296800       0.83811900       0.19796900
   173  C          0.14942000       0.53644000       0.76605900
   174  C          0.35058000       0.03644000       0.73394100
   175  C          0.85058000       0.46356000       0.23394100
   176  C          0.64942000       0.96356000       0.26605900
   177  H          0.20087800       0.66487200       0.77275200
   178  H          0.29912200       0.16487200       0.72724800
   179  H          0.79912200       0.33512800       0.22724800
   180  H          0.70087800       0.83512800       0.27275200
