data_LOYYOP
_symmetry_space_group_name_H-M    'P1'
_symmetry_Int_Tables_number       1
loop_
_symmetry_equiv_pos_site_id
_symmetry_equiv_pos_as_xyz
1 x,y,z
_cell_length_a                   14.222612
_cell_length_b                   19.009418
_cell_length_c                   7.52035
_cell_angle_alpha                90.0
_cell_angle_beta                 94.7277
_cell_angle_gamma                90.0
loop_
_atom_site_label
_atom_site_type_symbol
_atom_site_fract_x
_atom_site_fract_y
_atom_site_fract_z
     1  I          0.50000000       0.70155300       0.25000000
     2  I         -0.00000000       0.20155300       0.25000000
     3  I          0.50000000       0.29844700       0.75000000
     4  I          0.00000000       0.79844700       0.75000000
     5  I          0.70350200       0.42760200       0.15588400
     6  I          0.29649800       0.42760200       0.34411600
     7  I          0.20350200       0.92760200       0.15588400
     8  I          0.79649800       0.92760200       0.34411600
     9  I          0.29649800       0.57239800       0.84411600
    10  I          0.70350200       0.57239800       0.65588400
    11  I          0.79649800       0.07239800       0.84411600
    12  I          0.20350200       0.07239800       0.65588400
    13  F          0.50000000       0.37632000       0.25000000
    14  F         -0.00000000       0.87632000       0.25000000
    15  F          0.50000000       0.62368000       0.75000000
    16  F          0.00000000       0.12368000       0.75000000
    17  F          0.65372000       0.59032160       0.16214000
    18  F          0.34628000       0.59032160       0.33786000
    19  F          0.15372000       0.09032160       0.16214000
    20  F          0.84628000       0.09032160       0.33786000
    21  F          0.34628000       0.40967840       0.83786000
    22  F          0.65372000       0.40967840       0.66214000
    23  F          0.84628000       0.90967840       0.83786000
    24  F          0.15372000       0.90967840       0.66214000
    25  C          0.50000000       0.44723000       0.25000000
    26  C         -0.00000000       0.94723000       0.25000000
    27  C          0.50000000       0.55277000       0.75000000
    28  C          0.00000000       0.05277000       0.75000000
    29  C          0.58133000       0.48233000       0.20836000
    30  C          0.41867000       0.48233000       0.29164000
    31  C          0.08133000       0.98233000       0.20836000
    32  C          0.91867000       0.98233000       0.29164000
    33  C          0.41867000       0.51767000       0.79164000
    34  C          0.58133000       0.51767000       0.70836000
    35  C          0.91867000       0.01767000       0.79164000
    36  C          0.08133000       0.01767000       0.70836000
    37  C          0.57773000       0.55453000       0.20596000
    38  C          0.42227000       0.55453000       0.29404000
    39  C          0.07773000       0.05453000       0.20596000
    40  C          0.92227000       0.05453000       0.29404000
    41  C          0.42227000       0.44547000       0.79404000
    42  C          0.57773000       0.44547000       0.70596000
    43  C          0.92227000       0.94547000       0.79404000
    44  C          0.07773000       0.94547000       0.70596000
    45  C          0.50000000       0.59254000       0.25000000
    46  C         -0.00000000       0.09254000       0.25000000
    47  C          0.50000000       0.40746000       0.75000000
    48  C          0.00000000       0.90746000       0.75000000
    49  O          0.86683000       0.64592000       0.58085000
    50  O          0.13317000       0.64592000       0.91915000
    51  O          0.36683000       0.14592000       0.58085000
    52  O          0.63317000       0.14592000       0.91915000
    53  O          0.13317000       0.35408000       0.41915000
    54  O          0.86683000       0.35408000       0.08085000
    55  O          0.63317000       0.85408000       0.41915000
    56  O          0.36683000       0.85408000       0.08085000
    57  N          0.86663000       0.65352000       0.40535000
    58  N          0.13337000       0.65352000       0.09465000
    59  N          0.36663000       0.15352000       0.40535000
    60  N          0.63337000       0.15352000       0.09465000
    61  N          0.13337000       0.34648000       0.59465000
    62  N          0.86663000       0.34648000       0.90535000
    63  N          0.63337000       0.84648000       0.59465000
    64  N          0.36663000       0.84648000       0.90535000
    65  C          0.85084000       0.71703000       0.33368000
    66  C          0.14916000       0.71703000       0.16632000
    67  C          0.35084000       0.21703000       0.33368000
    68  C          0.64916000       0.21703000       0.16632000
    69  C          0.14916000       0.28297000       0.66632000
    70  C          0.85084000       0.28297000       0.83368000
    71  C          0.64916000       0.78297000       0.66632000
    72  C          0.35084000       0.78297000       0.83368000
    73  H          0.83920000       0.75480000       0.40690000
    74  H          0.16080000       0.75480000       0.09310000
    75  H          0.33920000       0.25480000       0.40690000
    76  H          0.66080000       0.25480000       0.09310000
    77  H          0.16080000       0.24520000       0.59310000
    78  H          0.83920000       0.24520000       0.90690000
    79  H          0.66080000       0.74520000       0.59310000
    80  H          0.33920000       0.74520000       0.90690000
    81  C          0.85145000       0.72723000       0.15368000
    82  C          0.14855000       0.72723000       0.34632000
    83  C          0.35145000       0.22723000       0.15368000
    84  C          0.64855000       0.22723000       0.34632000
    85  C          0.14855000       0.27277000       0.84632000
    86  C          0.85145000       0.27277000       0.65368000
    87  C          0.64855000       0.77277000       0.84632000
    88  C          0.35145000       0.77277000       0.65368000
    89  H          0.84150000       0.77190000       0.10530000
    90  H          0.15850000       0.77190000       0.39470000
    91  H          0.34150000       0.27190000       0.10530000
    92  H          0.65850000       0.27190000       0.39470000
    93  H          0.15850000       0.22810000       0.89470000
    94  H          0.84150000       0.22810000       0.60530000
    95  H          0.65850000       0.72810000       0.89470000
    96  H          0.34150000       0.72810000       0.60530000
    97  C          0.86704000       0.67074000       0.04427000
    98  C          0.13296000       0.67074000       0.45573000
    99  C          0.36704000       0.17074000       0.04427000
   100  C          0.63296000       0.17074000       0.45573000
   101  C          0.13296000       0.32926000       0.95573000
   102  C          0.86704000       0.32926000       0.54427000
   103  C          0.63296000       0.82926000       0.95573000
   104  C          0.36704000       0.82926000       0.54427000
   105  H          0.86750000       0.67670000       0.92150000
   106  H          0.13250000       0.67670000       0.57850000
   107  H          0.36750000       0.17670000       0.92150000
   108  H          0.63250000       0.17670000       0.57850000
   109  H          0.13250000       0.32330000       0.07850000
   110  H          0.86750000       0.32330000       0.42150000
   111  H          0.63250000       0.82330000       0.07850000
   112  H          0.36750000       0.82330000       0.42150000
   113  C          0.88154000       0.60604000       0.11978000
   114  C          0.11846000       0.60604000       0.38022000
   115  C          0.38154000       0.10604000       0.11978000
   116  C          0.61846000       0.10604000       0.38022000
   117  C          0.11846000       0.39396000       0.88022000
   118  C          0.88154000       0.39396000       0.61978000
   119  C          0.61846000       0.89396000       0.88022000
   120  C          0.38154000       0.89396000       0.61978000
   121  H          0.89160000       0.56710000       0.04890000
   122  H          0.10840000       0.56710000       0.45110000
   123  H          0.39160000       0.06710000       0.04890000
   124  H          0.60840000       0.06710000       0.45110000
   125  H          0.10840000       0.43290000       0.95110000
   126  H          0.89160000       0.43290000       0.54890000
   127  H          0.60840000       0.93290000       0.95110000
   128  H          0.39160000       0.93290000       0.54890000
   129  C          0.88134000       0.59893000       0.30038000
   130  C          0.11866000       0.59893000       0.19962000
   131  C          0.38134000       0.09893000       0.30038000
   132  C          0.61866000       0.09893000       0.19962000
   133  C          0.11866000       0.40107000       0.69962000
   134  C          0.88134000       0.40107000       0.80038000
   135  C          0.61866000       0.90107000       0.69962000
   136  C          0.38134000       0.90107000       0.80038000
   137  H          0.89160000       0.55470000       0.35140000
   138  H          0.10840000       0.55470000       0.14860000
   139  H          0.39160000       0.05470000       0.35140000
   140  H          0.60840000       0.05470000       0.14860000
   141  H          0.10840000       0.44530000       0.64860000
   142  H          0.89160000       0.44530000       0.85140000
   143  H          0.60840000       0.94530000       0.64860000
   144  H          0.39160000       0.94530000       0.85140000
   145  O         -0.00000000       0.55123000       0.75000000
   146  O          0.50000000       0.05123000       0.75000000
   147  O          0.00000000       0.44877000       0.25000000
   148  O          0.50000000       0.94877000       0.25000000
   149  H          0.95421800       0.57771100       0.71390000
   150  H          0.04578200       0.57771100       0.78610000
   151  H          0.45421800       0.07771100       0.71390000
   152  H          0.54578200       0.07771100       0.78610000
   153  H          0.04578200       0.42228900       0.28610000
   154  H          0.95421800       0.42228900       0.21390000
   155  H          0.54578200       0.92228900       0.28610000
   156  H          0.45421800       0.92228900       0.21390000
   157  H          0.04581800       0.57771100       0.78790000
   158  H          0.95418200       0.57771100       0.71210000
   159  H          0.54581800       0.07771100       0.78790000
   160  H          0.45418200       0.07771100       0.71210000
   161  H          0.95418200       0.42228900       0.21210000
   162  H          0.04581800       0.42228900       0.28790000
   163  H          0.45418200       0.92228900       0.21210000
   164  H          0.54581800       0.92228900       0.28790000
